/*---------------------------------------------------------------------------*\
| =========                 |                                                 |
| \\      /  F ield         | OpenFOAM: The Open Source CFD Toolbox           |
|  \\    /   O peration     | Version:  v1912                                 |
|   \\  /    A nd           | Website:  www.openfoam.com                      |
|    \\/     M anipulation  |                                                 |
\*---------------------------------------------------------------------------*/
Build  : _f3950763fe-20191219 OPENFOAM=1912
Arch   : "LSB;label=32;scalar=64"
Exec   : pimpleFoam -parallel
Date   : Jul 22 2020
Time   : 17:32:38
Host   : mohan-PC
PID    : 55534
I/O    : uncollated
Case   : /home/mohan/Documents/worm_project/pitzDaily
nProcs : 4
Hosts  :
(
    (mohan-PC 4)
)
Pstream initialized with:
    floatTransfer      : 0
    nProcsSimpleSum    : 0
    commsType          : nonBlocking
    polling iterations : 0
trapFpe: Floating point exception trapping enabled (FOAM_SIGFPE).
fileModificationChecking : Monitoring run-time modified files using timeStampMaster (fileModificationSkew 10)
allowSystemOperations : Allowing user-supplied system call operations

// * * * * * * * * * * * * * * * * * * * * * * * * * * * * * * * * * * * * * //
Create time

Create mesh for time = 0


PIMPLE: Operating solver in PISO mode

Reading field p

Reading field U

Reading/calculating face flux field phi

Selecting incompressible transport model Newtonian
Selecting turbulence model type RAS
Selecting RAS turbulence model kEpsilon
RAS
{
    RASModel        kEpsilon;
    turbulence      on;
    printCoeffs     on;
    Cmu             0.09;
    C1              1.44;
    C2              1.92;
    C3              0;
    sigmak          1;
    sigmaEps        1.3;
}

No MRF models present

No finite volume options present
Courant Number mean: 6.09756e-05 max: 0.0571614

Starting time loop

Courant Number mean: 6.09756e-05 max: 0.0571614
deltaT = 0.000120482
Time = 0.000120482

PIMPLE: iteration 1
smoothSolver:  Solving for Ux, Initial residual = 1, Final residual = 2.34745e-06, No Iterations 1
smoothSolver:  Solving for Uy, Initial residual = 1, Final residual = 1.88984e-06, No Iterations 1
GAMG:  Solving for p, Initial residual = 1, Final residual = 0.00642711, No Iterations 8
time step continuity errors : sum local = 9.44359e-07, global = -2.05596e-07, cumulative = -2.05596e-07
GAMG:  Solving for p, Initial residual = 0.0888047, Final residual = 6.70953e-08, No Iterations 13
time step continuity errors : sum local = 1.22521e-09, global = -2.70607e-10, cumulative = -2.05866e-07
smoothSolver:  Solving for epsilon, Initial residual = 0.0616732, Final residual = 1.91825e-07, No Iterations 2
smoothSolver:  Solving for k, Initial residual = 1, Final residual = 4.29898e-06, No Iterations 2
ExecutionTime = 0.04 s  ClockTime = 0 s

Courant Number mean: 0.0245106 max: 0.349391
deltaT = 0.000145287
Time = 0.000265769

PIMPLE: iteration 1
smoothSolver:  Solving for Ux, Initial residual = 0.516976, Final residual = 2.16707e-06, No Iterations 2
smoothSolver:  Solving for Uy, Initial residual = 0.441733, Final residual = 3.7394e-06, No Iterations 2
GAMG:  Solving for p, Initial residual = 0.0415184, Final residual = 0.000290394, No Iterations 6
time step continuity errors : sum local = 7.54187e-06, global = 1.62531e-06, cumulative = 1.41945e-06
GAMG:  Solving for p, Initial residual = 0.596128, Final residual = 4.37322e-08, No Iterations 16
time step continuity errors : sum local = 1.7561e-10, global = -3.89131e-11, cumulative = 1.41941e-06
smoothSolver:  Solving for epsilon, Initial residual = 0.0705479, Final residual = 4.67163e-07, No Iterations 2
smoothSolver:  Solving for k, Initial residual = 0.604665, Final residual = 5.14935e-06, No Iterations 2
ExecutionTime = 0.05 s  ClockTime = 0 s

Courant Number mean: 0.0296388 max: 0.390788
deltaT = 0.000173826
Time = 0.000439595

PIMPLE: iteration 1
smoothSolver:  Solving for Ux, Initial residual = 0.0228857, Final residual = 3.7468e-07, No Iterations 2
smoothSolver:  Solving for Uy, Initial residual = 0.0200438, Final residual = 2.54033e-07, No Iterations 2
GAMG:  Solving for p, Initial residual = 0.359953, Final residual = 0.00216283, No Iterations 3
time step continuity errors : sum local = 4.61336e-06, global = 7.92664e-07, cumulative = 2.21207e-06
GAMG:  Solving for p, Initial residual = 0.0760816, Final residual = 5.28171e-08, No Iterations 14
time step continuity errors : sum local = 7.4564e-11, global = 1.64865e-11, cumulative = 2.21209e-06
smoothSolver:  Solving for epsilon, Initial residual = 0.0784628, Final residual = 1.00046e-06, No Iterations 2
smoothSolver:  Solving for k, Initial residual = 0.448409, Final residual = 6.96493e-06, No Iterations 2
ExecutionTime = 0.06 s  ClockTime = 0 s

Courant Number mean: 0.0355143 max: 0.425614
deltaT = 0.000207835
Time = 0.000647429

PIMPLE: iteration 1
smoothSolver:  Solving for Ux, Initial residual = 0.0118418, Final residual = 5.83505e-07, No Iterations 2
smoothSolver:  Solving for Uy, Initial residual = 0.0106403, Final residual = 3.24199e-07, No Iterations 2
GAMG:  Solving for p, Initial residual = 0.20063, Final residual = 0.000977441, No Iterations 2
time step continuity errors : sum local = 1.51349e-06, global = 4.0958e-07, cumulative = 2.62167e-06
GAMG:  Solving for p, Initial residual = 0.0195238, Final residual = 4.34778e-08, No Iterations 13
time step continuity errors : sum local = 5.49522e-11, global = 1.21461e-11, cumulative = 2.62168e-06
smoothSolver:  Solving for epsilon, Initial residual = 0.0859036, Final residual = 1.96145e-06, No Iterations 2
smoothSolver:  Solving for k, Initial residual = 0.367579, Final residual = 9.82941e-06, No Iterations 2
ExecutionTime = 0.08 s  ClockTime = 0 s

Courant Number mean: 0.0425153 max: 0.46615
deltaT = 0.00024612
Time = 0.00089355

PIMPLE: iteration 1
smoothSolver:  Solving for Ux, Initial residual = 0.0103606, Final residual = 9.36845e-07, No Iterations 2
smoothSolver:  Solving for Uy, Initial residual = 0.0093183, Final residual = 6.33902e-07, No Iterations 2
GAMG:  Solving for p, Initial residual = 0.129082, Final residual = 0.000568871, No Iterations 2
time step continuity errors : sum local = 8.66072e-07, global = 2.35097e-07, cumulative = 2.85678e-06
GAMG:  Solving for p, Initial residual = 0.0110384, Final residual = 5.82119e-08, No Iterations 12
time step continuity errors : sum local = 7.90679e-11, global = 1.74691e-11, cumulative = 2.8568e-06
smoothSolver:  Solving for epsilon, Initial residual = 0.0920297, Final residual = 3.41933e-06, No Iterations 2
smoothSolver:  Solving for k, Initial residual = 0.317449, Final residual = 3.32639e-07, No Iterations 3
ExecutionTime = 0.09 s  ClockTime = 0 s

Courant Number mean: 0.0504107 max: 0.508588
deltaT = 0.000293756
Time = 0.00118731

PIMPLE: iteration 1
smoothSolver:  Solving for Ux, Initial residual = 0.0103099, Final residual = 1.61492e-06, No Iterations 2
smoothSolver:  Solving for Uy, Initial residual = 0.00928182, Final residual = 1.25456e-06, No Iterations 2
GAMG:  Solving for p, Initial residual = 0.0952478, Final residual = 0.000437166, No Iterations 2
time step continuity errors : sum local = 7.5936e-07, global = 1.91677e-07, cumulative = 3.04847e-06
GAMG:  Solving for p, Initial residual = 0.0084048, Final residual = 9.56393e-08, No Iterations 11
time step continuity errors : sum local = 1.54072e-10, global = 3.40281e-11, cumulative = 3.04851e-06
smoothSolver:  Solving for epsilon, Initial residual = 0.0981537, Final residual = 5.84578e-06, No Iterations 2
smoothSolver:  Solving for k, Initial residual = 0.286514, Final residual = 6.26297e-07, No Iterations 3
ExecutionTime = 0.1 s  ClockTime = 0 s

Courant Number mean: 0.0602551 max: 0.584562
deltaT = 0.000352508
Time = 0.00153981

PIMPLE: iteration 1
smoothSolver:  Solving for Ux, Initial residual = 0.0108045, Final residual = 2.80851e-06, No Iterations 2
smoothSolver:  Solving for Uy, Initial residual = 0.00969756, Final residual = 2.42313e-06, No Iterations 2
GAMG:  Solving for p, Initial residual = 0.0790034, Final residual = 0.000369843, No Iterations 2
time step continuity errors : sum local = 7.83123e-07, global = 1.93829e-07, cumulative = 3.24234e-06
GAMG:  Solving for p, Initial residual = 0.00742453, Final residual = 8.02746e-08, No Iterations 11
time step continuity errors : sum local = 1.60938e-10, global = 3.53848e-11, cumulative = 3.24237e-06
smoothSolver:  Solving for epsilon, Initial residual = 0.105095, Final residual = 4.29345e-07, No Iterations 3
smoothSolver:  Solving for k, Initial residual = 0.268754, Final residual = 1.23234e-06, No Iterations 3
ExecutionTime = 0.12 s  ClockTime = 0 s

Courant Number mean: 0.0724253 max: 0.696051
deltaT = 0.000423009
Time = 0.00196282

PIMPLE: iteration 1
smoothSolver:  Solving for Ux, Initial residual = 0.0114495, Final residual = 4.73302e-06, No Iterations 2
smoothSolver:  Solving for Uy, Initial residual = 0.0103701, Final residual = 4.56411e-06, No Iterations 2
GAMG:  Solving for p, Initial residual = 0.0662361, Final residual = 0.000347419, No Iterations 2
time step continuity errors : sum local = 9.23006e-07, global = 1.65146e-07, cumulative = 3.40752e-06
GAMG:  Solving for p, Initial residual = 0.00683876, Final residual = 6.09729e-08, No Iterations 11
time step continuity errors : sum local = 1.55696e-10, global = 3.40162e-11, cumulative = 3.40755e-06
smoothSolver:  Solving for epsilon, Initial residual = 0.112326, Final residual = 1.03636e-06, No Iterations 3
smoothSolver:  Solving for k, Initial residual = 0.256582, Final residual = 2.72202e-06, No Iterations 3
ExecutionTime = 0.13 s  ClockTime = 0 s

Courant Number mean: 0.0870721 max: 0.818322
deltaT = 0.000502324
Time = 0.00246515

PIMPLE: iteration 1
smoothSolver:  Solving for Ux, Initial residual = 0.0121601, Final residual = 7.7056e-06, No Iterations 2
smoothSolver:  Solving for Uy, Initial residual = 0.011089, Final residual = 7.91011e-06, No Iterations 2
GAMG:  Solving for p, Initial residual = 0.0597465, Final residual = 0.000349151, No Iterations 2
time step continuity errors : sum local = 1.16688e-06, global = 1.44485e-07, cumulative = 3.55204e-06
GAMG:  Solving for p, Initial residual = 0.00704602, Final residual = 5.15409e-08, No Iterations 11
time step continuity errors : sum local = 1.67378e-10, global = 3.62468e-11, cumulative = 3.55207e-06
smoothSolver:  Solving for epsilon, Initial residual = 0.117389, Final residual = 2.37527e-06, No Iterations 3
smoothSolver:  Solving for k, Initial residual = 0.243989, Final residual = 5.56313e-06, No Iterations 3
ExecutionTime = 0.14 s  ClockTime = 0 s

Courant Number mean: 0.103607 max: 0.9418
deltaT = 0.000579604
Time = 0.00304475

PIMPLE: iteration 1
smoothSolver:  Solving for Ux, Initial residual = 0.012702, Final residual = 6.86618e-07, No Iterations 3
smoothSolver:  Solving for Uy, Initial residual = 0.0115554, Final residual = 7.12662e-07, No Iterations 3
GAMG:  Solving for p, Initial residual = 0.0540212, Final residual = 0.000348296, No Iterations 2
time step continuity errors : sum local = 1.41519e-06, global = 1.09141e-07, cumulative = 3.66121e-06
GAMG:  Solving for p, Initial residual = 0.00723521, Final residual = 4.36645e-08, No Iterations 11
time step continuity errors : sum local = 1.74036e-10, global = 3.72914e-11, cumulative = 3.66125e-06
smoothSolver:  Solving for epsilon, Initial residual = 0.118301, Final residual = 4.53349e-06, No Iterations 3
smoothSolver:  Solving for k, Initial residual = 0.228825, Final residual = 9.76403e-06, No Iterations 3
ExecutionTime = 0.15 s  ClockTime = 0 s

Courant Number mean: 0.119803 max: 1.13931
deltaT = 0.000695525
Time = 0.00374028

PIMPLE: iteration 1
smoothSolver:  Solving for Ux, Initial residual = 0.0138584, Final residual = 1.45143e-06, No Iterations 3
smoothSolver:  Solving for Uy, Initial residual = 0.0125316, Final residual = 1.50012e-06, No Iterations 3
GAMG:  Solving for p, Initial residual = 0.0547075, Final residual = 0.000386826, No Iterations 2
time step continuity errors : sum local = 2.05666e-06, global = 6.50117e-08, cumulative = 3.72626e-06
GAMG:  Solving for p, Initial residual = 0.00823829, Final residual = 8.74597e-08, No Iterations 10
time step continuity errors : sum local = 4.56691e-10, global = 9.67757e-11, cumulative = 3.72636e-06
smoothSolver:  Solving for epsilon, Initial residual = 0.122893, Final residual = 1.01331e-06, No Iterations 4
smoothSolver:  Solving for k, Initial residual = 0.22308, Final residual = 1.95812e-06, No Iterations 4
ExecutionTime = 0.17 s  ClockTime = 0 s

Courant Number mean: 0.144091 max: 1.45886
deltaT = 0.000782466
Time = 0.00452274

PIMPLE: iteration 1
smoothSolver:  Solving for Ux, Initial residual = 0.0142455, Final residual = 2.10668e-06, No Iterations 3
smoothSolver:  Solving for Uy, Initial residual = 0.0127846, Final residual = 2.22702e-06, No Iterations 3
GAMG:  Solving for p, Initial residual = 0.0500082, Final residual = 0.000384453, No Iterations 2
time step continuity errors : sum local = 2.40762e-06, global = -5.01221e-08, cumulative = 3.67624e-06
GAMG:  Solving for p, Initial residual = 0.00893522, Final residual = 8.4383e-08, No Iterations 10
time step continuity errors : sum local = 5.22372e-10, global = 1.08011e-10, cumulative = 3.67635e-06
smoothSolver:  Solving for epsilon, Initial residual = 0.119352, Final residual = 1.80688e-06, No Iterations 4
smoothSolver:  Solving for k, Initial residual = 0.206053, Final residual = 3.28648e-06, No Iterations 4
ExecutionTime = 0.18 s  ClockTime = 0 s

Courant Number mean: 0.162508 max: 1.73145
deltaT = 0.000912876
Time = 0.00543562

PIMPLE: iteration 1
smoothSolver:  Solving for Ux, Initial residual = 0.015341, Final residual = 3.80442e-06, No Iterations 3
smoothSolver:  Solving for Uy, Initial residual = 0.0136954, Final residual = 3.92005e-06, No Iterations 3
GAMG:  Solving for p, Initial residual = 0.052851, Final residual = 0.000498854, No Iterations 2
time step continuity errors : sum local = 3.90982e-06, global = -8.35663e-09, cumulative = 3.66799e-06
GAMG:  Solving for p, Initial residual = 0.0101651, Final residual = 5.94488e-08, No Iterations 11
time step continuity errors : sum local = 4.58628e-10, global = 8.81833e-11, cumulative = 3.66808e-06
smoothSolver:  Solving for epsilon, Initial residual = 0.118385, Final residual = 3.74047e-06, No Iterations 4
smoothSolver:  Solving for k, Initial residual = 0.19638, Final residual = 6.44411e-06, No Iterations 4
ExecutionTime = 0.19 s  ClockTime = 0 s

Courant Number mean: 0.190198 max: 2.10594
deltaT = 0.0011411
Time = 0.00657671

PIMPLE: iteration 1
smoothSolver:  Solving for Ux, Initial residual = 0.0179704, Final residual = 1.37444e-06, No Iterations 4
smoothSolver:  Solving for Uy, Initial residual = 0.0157236, Final residual = 9.02802e-06, No Iterations 3
GAMG:  Solving for p, Initial residual = 0.0585042, Final residual = 0.000198388, No Iterations 3
time step continuity errors : sum local = 2.14372e-06, global = 1.64302e-07, cumulative = 3.83238e-06
GAMG:  Solving for p, Initial residual = 0.0131804, Final residual = 6.02384e-08, No Iterations 11
time step continuity errors : sum local = 6.38097e-10, global = -1.35347e-10, cumulative = 3.83224e-06
smoothSolver:  Solving for epsilon, Initial residual = 0.121835, Final residual = 9.509e-06, No Iterations 4
smoothSolver:  Solving for k, Initial residual = 0.195931, Final residual = 2.20445e-06, No Iterations 5
ExecutionTime = 0.2 s  ClockTime = 0 s

Courant Number mean: 0.238685 max: 2.71216
deltaT = 0.0011411
Time = 0.00771781

PIMPLE: iteration 1
smoothSolver:  Solving for Ux, Initial residual = 0.0168806, Final residual = 9.7795e-06, No Iterations 3
smoothSolver:  Solving for Uy, Initial residual = 0.0145917, Final residual = 8.93455e-06, No Iterations 3
GAMG:  Solving for p, Initial residual = 0.0498909, Final residual = 0.000235089, No Iterations 3
time step continuity errors : sum local = 2.47568e-06, global = 1.89914e-08, cumulative = 3.85124e-06
GAMG:  Solving for p, Initial residual = 0.0132664, Final residual = 7.88658e-08, No Iterations 11
time step continuity errors : sum local = 8.29012e-10, global = -1.71012e-10, cumulative = 3.85106e-06
smoothSolver:  Solving for epsilon, Initial residual = 0.103375, Final residual = 8.23824e-06, No Iterations 4
smoothSolver:  Solving for k, Initial residual = 0.162552, Final residual = 1.67466e-06, No Iterations 5
ExecutionTime = 0.22 s  ClockTime = 0 s

Courant Number mean: 0.239592 max: 2.76332
deltaT = 0.0011411
Time = 0.0088589

PIMPLE: iteration 1
smoothSolver:  Solving for Ux, Initial residual = 0.016153, Final residual = 9.66249e-06, No Iterations 3
smoothSolver:  Solving for Uy, Initial residual = 0.0136829, Final residual = 8.66566e-06, No Iterations 3
GAMG:  Solving for p, Initial residual = 0.048418, Final residual = 0.000229194, No Iterations 3
time step continuity errors : sum local = 2.39868e-06, global = 2.13808e-07, cumulative = 4.06487e-06
GAMG:  Solving for p, Initial residual = 0.0131033, Final residual = 8.15566e-08, No Iterations 11
time step continuity errors : sum local = 8.51325e-10, global = -1.7399e-10, cumulative = 4.0647e-06
smoothSolver:  Solving for epsilon, Initial residual = 0.0882696, Final residual = 6.63693e-06, No Iterations 4
smoothSolver:  Solving for k, Initial residual = 0.136591, Final residual = 8.81612e-06, No Iterations 4
ExecutionTime = 0.23 s  ClockTime = 0 s

Courant Number mean: 0.240519 max: 2.79675
deltaT = 0.0011411
Time = 0.01

PIMPLE: iteration 1
smoothSolver:  Solving for Ux, Initial residual = 0.0155363, Final residual = 9.55164e-06, No Iterations 3
smoothSolver:  Solving for Uy, Initial residual = 0.0129643, Final residual = 8.7166e-06, No Iterations 3
GAMG:  Solving for p, Initial residual = 0.0457826, Final residual = 0.00021679, No Iterations 3
time step continuity errors : sum local = 2.25025e-06, global = 2.15666e-07, cumulative = 4.28036e-06
GAMG:  Solving for p, Initial residual = 0.0123785, Final residual = 8.6747e-08, No Iterations 11
time step continuity errors : sum local = 8.96904e-10, global = -1.81295e-10, cumulative = 4.28018e-06
smoothSolver:  Solving for epsilon, Initial residual = 0.0760945, Final residual = 5.04137e-06, No Iterations 4
smoothSolver:  Solving for k, Initial residual = 0.116554, Final residual = 6.01931e-06, No Iterations 4
ExecutionTime = 0.25 s  ClockTime = 0 s

Courant Number mean: 0.241452 max: 2.81942
deltaT = 0.00142857
Time = 0.0114286

PIMPLE: iteration 1
smoothSolver:  Solving for Ux, Initial residual = 0.0186374, Final residual = 4.32095e-06, No Iterations 4
smoothSolver:  Solving for Uy, Initial residual = 0.0155005, Final residual = 4.85007e-06, No Iterations 4
GAMG:  Solving for p, Initial residual = 0.058152, Final residual = 0.000338839, No Iterations 3
time step continuity errors : sum local = 4.88835e-06, global = 9.98114e-07, cumulative = 5.2783e-06
GAMG:  Solving for p, Initial residual = 0.0161098, Final residual = 7.87087e-08, No Iterations 11
time step continuity errors : sum local = 1.11089e-09, global = -2.4765e-10, cumulative = 5.27805e-06
smoothSolver:  Solving for epsilon, Initial residual = 0.0783094, Final residual = 9.35791e-06, No Iterations 4
smoothSolver:  Solving for k, Initial residual = 0.11992, Final residual = 1.36285e-06, No Iterations 5
ExecutionTime = 0.26 s  ClockTime = 0 s

Courant Number mean: 0.303724 max: 3.5475
deltaT = 0.00171429
Time = 0.0131429

PIMPLE: iteration 1
smoothSolver:  Solving for Ux, Initial residual = 0.021311, Final residual = 9.82604e-06, No Iterations 4
smoothSolver:  Solving for Uy, Initial residual = 0.0178622, Final residual = 2.48144e-06, No Iterations 5
GAMG:  Solving for p, Initial residual = 0.0597545, Final residual = 0.000444851, No Iterations 3
time step continuity errors : sum local = 8.20911e-06, global = 1.38291e-06, cumulative = 6.66096e-06
GAMG:  Solving for p, Initial residual = 0.0203802, Final residual = 4.61298e-08, No Iterations 12
time step continuity errors : sum local = 8.39451e-10, global = -1.81418e-10, cumulative = 6.66077e-06
smoothSolver:  Solving for epsilon, Initial residual = 0.0763558, Final residual = 1.81752e-06, No Iterations 5
smoothSolver:  Solving for k, Initial residual = 0.117294, Final residual = 2.51987e-06, No Iterations 5
ExecutionTime = 0.28 s  ClockTime = 0 s

Courant Number mean: 0.36654 max: 4.25756
deltaT = 0.00171429
Time = 0.0148571

PIMPLE: iteration 1
smoothSolver:  Solving for Ux, Initial residual = 0.0204081, Final residual = 9.20249e-06, No Iterations 4
smoothSolver:  Solving for Uy, Initial residual = 0.0172076, Final residual = 9.87896e-06, No Iterations 4
GAMG:  Solving for p, Initial residual = 0.0581237, Final residual = 0.000469644, No Iterations 3
time step continuity errors : sum local = 8.55877e-06, global = 1.78579e-06, cumulative = 8.44656e-06
GAMG:  Solving for p, Initial residual = 0.0217192, Final residual = 6.54176e-08, No Iterations 12
time step continuity errors : sum local = 1.18934e-09, global = 2.12401e-10, cumulative = 8.44677e-06
smoothSolver:  Solving for epsilon, Initial residual = 0.0633946, Final residual = 1.5346e-06, No Iterations 5
smoothSolver:  Solving for k, Initial residual = 0.0984413, Final residual = 2.38034e-06, No Iterations 5
ExecutionTime = 0.3 s  ClockTime = 0 s

Courant Number mean: 0.368628 max: 4.23368
deltaT = 0.00171429
Time = 0.0165714

PIMPLE: iteration 1
smoothSolver:  Solving for Ux, Initial residual = 0.0194674, Final residual = 8.69854e-06, No Iterations 4
smoothSolver:  Solving for Uy, Initial residual = 0.0165777, Final residual = 8.92416e-06, No Iterations 4
GAMG:  Solving for p, Initial residual = 0.0567432, Final residual = 0.000490061, No Iterations 3
time step continuity errors : sum local = 8.89161e-06, global = 1.87008e-06, cumulative = 1.03169e-05
GAMG:  Solving for p, Initial residual = 0.0212082, Final residual = 6.17118e-08, No Iterations 12
time step continuity errors : sum local = 1.11268e-09, global = 2.06339e-10, cumulative = 1.03171e-05
smoothSolver:  Solving for epsilon, Initial residual = 0.0526732, Final residual = 8.42677e-06, No Iterations 4
smoothSolver:  Solving for k, Initial residual = 0.0838911, Final residual = 2.15173e-06, No Iterations 5
ExecutionTime = 0.31 s  ClockTime = 1 s

Courant Number mean: 0.37077 max: 4.18346
deltaT = 0.00171429
Time = 0.0182857

PIMPLE: iteration 1
smoothSolver:  Solving for Ux, Initial residual = 0.0184987, Final residual = 8.40686e-06, No Iterations 4
smoothSolver:  Solving for Uy, Initial residual = 0.0159427, Final residual = 8.0823e-06, No Iterations 4
GAMG:  Solving for p, Initial residual = 0.0546671, Final residual = 0.000471127, No Iterations 3
time step continuity errors : sum local = 8.49837e-06, global = 1.89305e-06, cumulative = 1.22101e-05
GAMG:  Solving for p, Initial residual = 0.0204079, Final residual = 6.36361e-08, No Iterations 12
time step continuity errors : sum local = 1.14069e-09, global = 2.11445e-10, cumulative = 1.22103e-05
smoothSolver:  Solving for epsilon, Initial residual = 0.0445925, Final residual = 6.15959e-06, No Iterations 4
smoothSolver:  Solving for k, Initial residual = 0.0729798, Final residual = 1.87661e-06, No Iterations 5
ExecutionTime = 0.32 s  ClockTime = 1 s

Courant Number mean: 0.372997 max: 4.11141
deltaT = 0.00171429
Time = 0.02

PIMPLE: iteration 1
smoothSolver:  Solving for Ux, Initial residual = 0.0176191, Final residual = 8.23028e-06, No Iterations 4
smoothSolver:  Solving for Uy, Initial residual = 0.0154365, Final residual = 7.23587e-06, No Iterations 4
GAMG:  Solving for p, Initial residual = 0.0535302, Final residual = 0.000456136, No Iterations 3
time step continuity errors : sum local = 8.1967e-06, global = 1.82884e-06, cumulative = 1.40392e-05
GAMG:  Solving for p, Initial residual = 0.0195658, Final residual = 6.07049e-08, No Iterations 12
time step continuity errors : sum local = 1.0874e-09, global = 2.02395e-10, cumulative = 1.40394e-05
smoothSolver:  Solving for epsilon, Initial residual = 0.0381875, Final residual = 4.65281e-06, No Iterations 4
smoothSolver:  Solving for k, Initial residual = 0.0643145, Final residual = 9.04398e-06, No Iterations 4
ExecutionTime = 0.34 s  ClockTime = 1 s

Courant Number mean: 0.375318 max: 4.02595
deltaT = 0.002
Time = 0.022

PIMPLE: iteration 1
smoothSolver:  Solving for Ux, Initial residual = 0.0193592, Final residual = 3.61983e-06, No Iterations 5
smoothSolver:  Solving for Uy, Initial residual = 0.0172541, Final residual = 3.12569e-06, No Iterations 5
GAMG:  Solving for p, Initial residual = 0.0603068, Final residual = 0.000484956, No Iterations 3
time step continuity errors : sum local = 1.08778e-05, global = 2.46501e-06, cumulative = 1.65044e-05
GAMG:  Solving for p, Initial residual = 0.0219891, Final residual = 6.70952e-08, No Iterations 12
time step continuity errors : sum local = 1.48125e-09, global = 2.73532e-10, cumulative = 1.65046e-05
smoothSolver:  Solving for epsilon, Initial residual = 0.0375675, Final residual = 6.99738e-06, No Iterations 4
smoothSolver:  Solving for k, Initial residual = 0.0656082, Final residual = 3.20734e-06, No Iterations 5
ExecutionTime = 0.36 s  ClockTime = 1 s

Courant Number mean: 0.441142 max: 4.58513
deltaT = 0.002
Time = 0.024

PIMPLE: iteration 1
smoothSolver:  Solving for Ux, Initial residual = 0.0182094, Final residual = 3.38837e-06, No Iterations 5
smoothSolver:  Solving for Uy, Initial residual = 0.0165655, Final residual = 2.84037e-06, No Iterations 5
GAMG:  Solving for p, Initial residual = 0.0578981, Final residual = 0.000495732, No Iterations 3
time step continuity errors : sum local = 1.09906e-05, global = 2.36032e-06, cumulative = 1.8865e-05
GAMG:  Solving for p, Initial residual = 0.0218437, Final residual = 6.53293e-08, No Iterations 12
time step continuity errors : sum local = 1.44465e-09, global = 2.6832e-10, cumulative = 1.88652e-05
smoothSolver:  Solving for epsilon, Initial residual = 0.0326074, Final residual = 6.1136e-06, No Iterations 4
smoothSolver:  Solving for k, Initial residual = 0.0584993, Final residual = 2.93983e-06, No Iterations 5
ExecutionTime = 0.37 s  ClockTime = 1 s

Courant Number mean: 0.444503 max: 4.48039
deltaT = 0.002
Time = 0.026

PIMPLE: iteration 1
smoothSolver:  Solving for Ux, Initial residual = 0.0172063, Final residual = 3.21808e-06, No Iterations 5
smoothSolver:  Solving for Uy, Initial residual = 0.0158223, Final residual = 2.52798e-06, No Iterations 5
GAMG:  Solving for p, Initial residual = 0.0559586, Final residual = 0.000441608, No Iterations 3
time step continuity errors : sum local = 9.80055e-06, global = 2.1437e-06, cumulative = 2.10089e-05
GAMG:  Solving for p, Initial residual = 0.0204233, Final residual = 5.85707e-08, No Iterations 12
time step continuity errors : sum local = 1.29532e-09, global = 2.42037e-10, cumulative = 2.10092e-05
smoothSolver:  Solving for epsilon, Initial residual = 0.0288723, Final residual = 6.35392e-06, No Iterations 4
smoothSolver:  Solving for k, Initial residual = 0.0528444, Final residual = 2.81752e-06, No Iterations 5
ExecutionTime = 0.38 s  ClockTime = 1 s

Courant Number mean: 0.447961 max: 4.39149
deltaT = 0.002
Time = 0.028

PIMPLE: iteration 1
smoothSolver:  Solving for Ux, Initial residual = 0.0163205, Final residual = 3.07725e-06, No Iterations 5
smoothSolver:  Solving for Uy, Initial residual = 0.0151566, Final residual = 2.24992e-06, No Iterations 5
GAMG:  Solving for p, Initial residual = 0.0522508, Final residual = 0.000428743, No Iterations 3
time step continuity errors : sum local = 9.50412e-06, global = 1.94743e-06, cumulative = 2.29566e-05
GAMG:  Solving for p, Initial residual = 0.0188114, Final residual = 5.34219e-08, No Iterations 12
time step continuity errors : sum local = 1.18072e-09, global = 2.21572e-10, cumulative = 2.29568e-05
smoothSolver:  Solving for epsilon, Initial residual = 0.0269493, Final residual = 6.88839e-06, No Iterations 4
smoothSolver:  Solving for k, Initial residual = 0.0486577, Final residual = 2.75698e-06, No Iterations 5
ExecutionTime = 0.39 s  ClockTime = 1 s

Courant Number mean: 0.45157 max: 4.32145
deltaT = 0.002
Time = 0.03

PIMPLE: iteration 1
smoothSolver:  Solving for Ux, Initial residual = 0.0155201, Final residual = 2.92204e-06, No Iterations 5
smoothSolver:  Solving for Uy, Initial residual = 0.0145775, Final residual = 9.56011e-06, No Iterations 4
GAMG:  Solving for p, Initial residual = 0.0491065, Final residual = 0.000387897, No Iterations 3
time step continuity errors : sum local = 8.5875e-06, global = 1.72104e-06, cumulative = 2.46779e-05
GAMG:  Solving for p, Initial residual = 0.0178836, Final residual = 4.94012e-08, No Iterations 12
time step continuity errors : sum local = 1.09109e-09, global = 2.05775e-10, cumulative = 2.46781e-05
smoothSolver:  Solving for epsilon, Initial residual = 0.0256728, Final residual = 7.25625e-06, No Iterations 4
smoothSolver:  Solving for k, Initial residual = 0.0450371, Final residual = 2.71714e-06, No Iterations 5
ExecutionTime = 0.42 s  ClockTime = 1 s

Courant Number mean: 0.455214 max: 4.26794
deltaT = 0.0025
Time = 0.0325

PIMPLE: iteration 1
smoothSolver:  Solving for Ux, Initial residual = 0.0183767, Final residual = 9.15497e-06, No Iterations 5
smoothSolver:  Solving for Uy, Initial residual = 0.0174301, Final residual = 6.30733e-06, No Iterations 5
GAMG:  Solving for p, Initial residual = 0.0590831, Final residual = 0.000459992, No Iterations 3
time step continuity errors : sum local = 1.40017e-05, global = 2.48616e-06, cumulative = 2.71642e-05
GAMG:  Solving for p, Initial residual = 0.0221398, Final residual = 5.95272e-08, No Iterations 12
time step continuity errors : sum local = 1.78795e-09, global = 3.32827e-10, cumulative = 2.71646e-05
smoothSolver:  Solving for epsilon, Initial residual = 0.0293927, Final residual = 3.68491e-06, No Iterations 5
smoothSolver:  Solving for k, Initial residual = 0.0506128, Final residual = 8.72858e-06, No Iterations 5
ExecutionTime = 0.43 s  ClockTime = 1 s

Courant Number mean: 0.574586 max: 5.27741
deltaT = 0.0025
Time = 0.035

PIMPLE: iteration 1
smoothSolver:  Solving for Ux, Initial residual = 0.0175528, Final residual = 8.61545e-06, No Iterations 5
smoothSolver:  Solving for Uy, Initial residual = 0.0169052, Final residual = 5.87385e-06, No Iterations 5
GAMG:  Solving for p, Initial residual = 0.0548733, Final residual = 0.000513856, No Iterations 3
time step continuity errors : sum local = 1.5527e-05, global = 1.94644e-06, cumulative = 2.9111e-05
GAMG:  Solving for p, Initial residual = 0.0227284, Final residual = 5.79099e-08, No Iterations 12
time step continuity errors : sum local = 1.75364e-09, global = 3.29307e-10, cumulative = 2.91113e-05
smoothSolver:  Solving for epsilon, Initial residual = 0.0273467, Final residual = 3.62908e-06, No Iterations 5
smoothSolver:  Solving for k, Initial residual = 0.0462162, Final residual = 8.67234e-06, No Iterations 5
ExecutionTime = 0.44 s  ClockTime = 1 s

Courant Number mean: 0.579995 max: 5.33594
deltaT = 0.0025
Time = 0.0375

PIMPLE: iteration 1
smoothSolver:  Solving for Ux, Initial residual = 0.0168733, Final residual = 8.00931e-06, No Iterations 5
smoothSolver:  Solving for Uy, Initial residual = 0.0163589, Final residual = 5.42047e-06, No Iterations 5
GAMG:  Solving for p, Initial residual = 0.0540944, Final residual = 0.000495549, No Iterations 3
time step continuity errors : sum local = 1.50472e-05, global = 1.72153e-06, cumulative = 3.08329e-05
GAMG:  Solving for p, Initial residual = 0.0224717, Final residual = 5.35776e-08, No Iterations 12
time step continuity errors : sum local = 1.62608e-09, global = 3.06061e-10, cumulative = 3.08332e-05
smoothSolver:  Solving for epsilon, Initial residual = 0.0253048, Final residual = 3.45712e-06, No Iterations 5
smoothSolver:  Solving for k, Initial residual = 0.0424098, Final residual = 8.36546e-06, No Iterations 5
ExecutionTime = 0.46 s  ClockTime = 1 s

Courant Number mean: 0.585206 max: 5.43022
deltaT = 0.0025
Time = 0.04

PIMPLE: iteration 1
smoothSolver:  Solving for Ux, Initial residual = 0.0163331, Final residual = 7.52977e-06, No Iterations 5
smoothSolver:  Solving for Uy, Initial residual = 0.0158979, Final residual = 5.01474e-06, No Iterations 5
GAMG:  Solving for p, Initial residual = 0.053098, Final residual = 0.000488424, No Iterations 3
time step continuity errors : sum local = 1.48462e-05, global = 1.26717e-06, cumulative = 3.21003e-05
GAMG:  Solving for p, Initial residual = 0.0221061, Final residual = 4.81463e-08, No Iterations 12
time step continuity errors : sum local = 1.46175e-09, global = 2.75513e-10, cumulative = 3.21006e-05
smoothSolver:  Solving for epsilon, Initial residual = 0.023564, Final residual = 3.35777e-06, No Iterations 5
smoothSolver:  Solving for k, Initial residual = 0.0392011, Final residual = 8.32199e-06, No Iterations 5
ExecutionTime = 0.48 s  ClockTime = 1 s

Courant Number mean: 0.590168 max: 5.51511
deltaT = 0.0025
Time = 0.0425

PIMPLE: iteration 1
smoothSolver:  Solving for Ux, Initial residual = 0.0159528, Final residual = 7.11606e-06, No Iterations 5
smoothSolver:  Solving for Uy, Initial residual = 0.0154174, Final residual = 4.62982e-06, No Iterations 5
GAMG:  Solving for p, Initial residual = 0.0525446, Final residual = 0.000476719, No Iterations 3
time step continuity errors : sum local = 1.44895e-05, global = 9.68818e-07, cumulative = 3.30694e-05
GAMG:  Solving for p, Initial residual = 0.0217293, Final residual = 9.90899e-08, No Iterations 11
time step continuity errors : sum local = 3.00508e-09, global = 5.74793e-10, cumulative = 3.307e-05
smoothSolver:  Solving for epsilon, Initial residual = 0.0223135, Final residual = 3.3696e-06, No Iterations 5
smoothSolver:  Solving for k, Initial residual = 0.0366465, Final residual = 8.35113e-06, No Iterations 5
ExecutionTime = 0.49 s  ClockTime = 1 s

Courant Number mean: 0.594948 max: 5.59206
deltaT = 0.0025
Time = 0.045

PIMPLE: iteration 1
smoothSolver:  Solving for Ux, Initial residual = 0.0156312, Final residual = 6.75878e-06, No Iterations 5
smoothSolver:  Solving for Uy, Initial residual = 0.0149516, Final residual = 4.2619e-06, No Iterations 5
GAMG:  Solving for p, Initial residual = 0.0518618, Final residual = 0.000460431, No Iterations 3
time step continuity errors : sum local = 1.39869e-05, global = 6.21593e-07, cumulative = 3.36916e-05
GAMG:  Solving for p, Initial residual = 0.0213443, Final residual = 9.18167e-08, No Iterations 11
time step continuity errors : sum local = 2.78507e-09, global = 5.04415e-10, cumulative = 3.36921e-05
smoothSolver:  Solving for epsilon, Initial residual = 0.0213386, Final residual = 3.46639e-06, No Iterations 5
smoothSolver:  Solving for k, Initial residual = 0.0345862, Final residual = 8.36232e-06, No Iterations 5
ExecutionTime = 0.5 s  ClockTime = 1 s

Courant Number mean: 0.599361 max: 5.66234
deltaT = 0.0025
Time = 0.0475

PIMPLE: iteration 1
smoothSolver:  Solving for Ux, Initial residual = 0.0153527, Final residual = 6.43184e-06, No Iterations 5
smoothSolver:  Solving for Uy, Initial residual = 0.0145005, Final residual = 3.93128e-06, No Iterations 5
GAMG:  Solving for p, Initial residual = 0.0509811, Final residual = 0.000455016, No Iterations 3
time step continuity errors : sum local = 1.38268e-05, global = 3.45737e-07, cumulative = 3.40378e-05
GAMG:  Solving for p, Initial residual = 0.0209966, Final residual = 8.55459e-08, No Iterations 11
time step continuity errors : sum local = 2.59726e-09, global = 3.96124e-10, cumulative = 3.40382e-05
smoothSolver:  Solving for epsilon, Initial residual = 0.02068, Final residual = 3.5763e-06, No Iterations 5
smoothSolver:  Solving for k, Initial residual = 0.0329172, Final residual = 8.35348e-06, No Iterations 5
ExecutionTime = 0.52 s  ClockTime = 1 s

Courant Number mean: 0.603594 max: 5.72731
deltaT = 0.0025
Time = 0.05

PIMPLE: iteration 1
smoothSolver:  Solving for Ux, Initial residual = 0.0150499, Final residual = 6.13122e-06, No Iterations 5
smoothSolver:  Solving for Uy, Initial residual = 0.0141003, Final residual = 3.67581e-06, No Iterations 5
GAMG:  Solving for p, Initial residual = 0.0507396, Final residual = 0.000455371, No Iterations 3
time step continuity errors : sum local = 1.38612e-05, global = 7.68302e-08, cumulative = 3.41151e-05
GAMG:  Solving for p, Initial residual = 0.0207792, Final residual = 4.702e-08, No Iterations 12
time step continuity errors : sum local = 1.43174e-09, global = -1.85883e-10, cumulative = 3.41149e-05
smoothSolver:  Solving for epsilon, Initial residual = 0.0203951, Final residual = 3.72462e-06, No Iterations 5
smoothSolver:  Solving for k, Initial residual = 0.0314625, Final residual = 8.37973e-06, No Iterations 5
ExecutionTime = 0.54 s  ClockTime = 1 s

Courant Number mean: 0.607703 max: 5.78828
deltaT = 0.002
Time = 0.052

PIMPLE: iteration 1
smoothSolver:  Solving for Ux, Initial residual = 0.0119283, Final residual = 7.68442e-06, No Iterations 4
smoothSolver:  Solving for Uy, Initial residual = 0.0110911, Final residual = 4.70874e-06, No Iterations 4
GAMG:  Solving for p, Initial residual = 0.0474686, Final residual = 0.000378045, No Iterations 3
time step continuity errors : sum local = 8.37779e-06, global = -1.01791e-07, cumulative = 3.40131e-05
GAMG:  Solving for p, Initial residual = 0.0157072, Final residual = 9.02402e-08, No Iterations 11
time step continuity errors : sum local = 2.02226e-09, global = -2.50566e-10, cumulative = 3.40128e-05
smoothSolver:  Solving for epsilon, Initial residual = 0.0166439, Final residual = 6.85982e-06, No Iterations 4
smoothSolver:  Solving for k, Initial residual = 0.0246204, Final residual = 2.64276e-06, No Iterations 5
ExecutionTime = 0.55 s  ClockTime = 1 s

Courant Number mean: 0.48869 max: 4.66816
deltaT = 0.002
Time = 0.054

PIMPLE: iteration 1
smoothSolver:  Solving for Ux, Initial residual = 0.0117388, Final residual = 7.36348e-06, No Iterations 4
smoothSolver:  Solving for Uy, Initial residual = 0.0108536, Final residual = 4.49417e-06, No Iterations 4
GAMG:  Solving for p, Initial residual = 0.0393611, Final residual = 0.000320088, No Iterations 3
time step continuity errors : sum local = 7.15376e-06, global = -2.23455e-08, cumulative = 3.39905e-05
GAMG:  Solving for p, Initial residual = 0.0139729, Final residual = 6.61962e-08, No Iterations 11
time step continuity errors : sum local = 1.47487e-09, global = 5.67076e-11, cumulative = 3.39905e-05
smoothSolver:  Solving for epsilon, Initial residual = 0.0165325, Final residual = 7.10244e-06, No Iterations 4
smoothSolver:  Solving for k, Initial residual = 0.0238292, Final residual = 2.68484e-06, No Iterations 5
ExecutionTime = 0.56 s  ClockTime = 1 s

Courant Number mean: 0.491176 max: 4.70346
deltaT = 0.002
Time = 0.056

PIMPLE: iteration 1
smoothSolver:  Solving for Ux, Initial residual = 0.0115208, Final residual = 7.22187e-06, No Iterations 4
smoothSolver:  Solving for Uy, Initial residual = 0.0106358, Final residual = 4.40642e-06, No Iterations 4
GAMG:  Solving for p, Initial residual = 0.0373719, Final residual = 0.000326902, No Iterations 3
time step continuity errors : sum local = 7.28378e-06, global = -1.97735e-07, cumulative = 3.37928e-05
GAMG:  Solving for p, Initial residual = 0.0135664, Final residual = 7.33416e-08, No Iterations 11
time step continuity errors : sum local = 1.633e-09, global = -2.54977e-10, cumulative = 3.37925e-05
smoothSolver:  Solving for epsilon, Initial residual = 0.016442, Final residual = 7.30889e-06, No Iterations 4
smoothSolver:  Solving for k, Initial residual = 0.0231004, Final residual = 2.72563e-06, No Iterations 5
ExecutionTime = 0.57 s  ClockTime = 1 s

Courant Number mean: 0.493609 max: 4.7374
deltaT = 0.002
Time = 0.058

PIMPLE: iteration 1
smoothSolver:  Solving for Ux, Initial residual = 0.0113084, Final residual = 7.0916e-06, No Iterations 4
smoothSolver:  Solving for Uy, Initial residual = 0.0104701, Final residual = 4.33312e-06, No Iterations 4
GAMG:  Solving for p, Initial residual = 0.0370448, Final residual = 0.000320891, No Iterations 3
time step continuity errors : sum local = 7.14501e-06, global = -1.92862e-07, cumulative = 3.35997e-05
GAMG:  Solving for p, Initial residual = 0.0131946, Final residual = 7.73986e-08, No Iterations 11
time step continuity errors : sum local = 1.72218e-09, global = -2.50093e-10, cumulative = 3.35994e-05
smoothSolver:  Solving for epsilon, Initial residual = 0.0163453, Final residual = 7.47545e-06, No Iterations 4
smoothSolver:  Solving for k, Initial residual = 0.0224507, Final residual = 2.75266e-06, No Iterations 5
ExecutionTime = 0.59 s  ClockTime = 1 s

Courant Number mean: 0.496037 max: 4.77008
deltaT = 0.002
Time = 0.06

PIMPLE: iteration 1
smoothSolver:  Solving for Ux, Initial residual = 0.0110916, Final residual = 6.99176e-06, No Iterations 4
smoothSolver:  Solving for Uy, Initial residual = 0.0102927, Final residual = 4.24595e-06, No Iterations 4
GAMG:  Solving for p, Initial residual = 0.0367176, Final residual = 0.000310633, No Iterations 3
time step continuity errors : sum local = 6.90981e-06, global = -2.54509e-07, cumulative = 3.33449e-05
GAMG:  Solving for p, Initial residual = 0.0129727, Final residual = 7.8734e-08, No Iterations 11
time step continuity errors : sum local = 1.75077e-09, global = -2.68142e-10, cumulative = 3.33447e-05
smoothSolver:  Solving for epsilon, Initial residual = 0.0162035, Final residual = 7.59656e-06, No Iterations 4
smoothSolver:  Solving for k, Initial residual = 0.0218121, Final residual = 2.76426e-06, No Iterations 5
ExecutionTime = 0.61 s  ClockTime = 1 s

Courant Number mean: 0.498429 max: 4.80126
deltaT = 0.002
Time = 0.062

PIMPLE: iteration 1
smoothSolver:  Solving for Ux, Initial residual = 0.0108534, Final residual = 6.87616e-06, No Iterations 4
smoothSolver:  Solving for Uy, Initial residual = 0.0100993, Final residual = 4.20056e-06, No Iterations 4
GAMG:  Solving for p, Initial residual = 0.0363269, Final residual = 0.000313055, No Iterations 3
time step continuity errors : sum local = 6.96409e-06, global = -2.63941e-07, cumulative = 3.30807e-05
GAMG:  Solving for p, Initial residual = 0.0126472, Final residual = 7.79183e-08, No Iterations 11
time step continuity errors : sum local = 1.73415e-09, global = -2.77995e-10, cumulative = 3.30804e-05
smoothSolver:  Solving for epsilon, Initial residual = 0.0160345, Final residual = 7.67957e-06, No Iterations 4
smoothSolver:  Solving for k, Initial residual = 0.021228, Final residual = 2.76418e-06, No Iterations 5
ExecutionTime = 0.62 s  ClockTime = 1 s

Courant Number mean: 0.500739 max: 4.83096
deltaT = 0.002
Time = 0.064

PIMPLE: iteration 1
smoothSolver:  Solving for Ux, Initial residual = 0.0105883, Final residual = 6.74686e-06, No Iterations 4
smoothSolver:  Solving for Uy, Initial residual = 0.00991937, Final residual = 4.10232e-06, No Iterations 4
GAMG:  Solving for p, Initial residual = 0.0351541, Final residual = 0.000310579, No Iterations 3
time step continuity errors : sum local = 6.91534e-06, global = -2.76329e-07, cumulative = 3.28041e-05
GAMG:  Solving for p, Initial residual = 0.0123125, Final residual = 8.07952e-08, No Iterations 11
time step continuity errors : sum local = 1.80015e-09, global = -2.8223e-10, cumulative = 3.28038e-05
smoothSolver:  Solving for epsilon, Initial residual = 0.0158131, Final residual = 7.72531e-06, No Iterations 4
smoothSolver:  Solving for k, Initial residual = 0.0206583, Final residual = 2.75486e-06, No Iterations 5
ExecutionTime = 0.63 s  ClockTime = 1 s

Courant Number mean: 0.50301 max: 4.85927
deltaT = 0.002
Time = 0.066

PIMPLE: iteration 1
smoothSolver:  Solving for Ux, Initial residual = 0.0103384, Final residual = 6.58948e-06, No Iterations 4
smoothSolver:  Solving for Uy, Initial residual = 0.00972871, Final residual = 3.9979e-06, No Iterations 4
GAMG:  Solving for p, Initial residual = 0.0345902, Final residual = 0.000316626, No Iterations 3
time step continuity errors : sum local = 7.06203e-06, global = -1.95514e-07, cumulative = 3.26083e-05
GAMG:  Solving for p, Initial residual = 0.0119966, Final residual = 8.3285e-08, No Iterations 11
time step continuity errors : sum local = 1.85885e-09, global = -2.78541e-10, cumulative = 3.2608e-05
smoothSolver:  Solving for epsilon, Initial residual = 0.0155288, Final residual = 7.73268e-06, No Iterations 4
smoothSolver:  Solving for k, Initial residual = 0.020083, Final residual = 2.74101e-06, No Iterations 5
ExecutionTime = 0.64 s  ClockTime = 1 s

Courant Number mean: 0.505282 max: 4.88587
deltaT = 0.002
Time = 0.068

PIMPLE: iteration 1
smoothSolver:  Solving for Ux, Initial residual = 0.0100924, Final residual = 6.39178e-06, No Iterations 4
smoothSolver:  Solving for Uy, Initial residual = 0.00954913, Final residual = 3.89694e-06, No Iterations 4
GAMG:  Solving for p, Initial residual = 0.0336242, Final residual = 0.000306874, No Iterations 3
time step continuity errors : sum local = 6.85305e-06, global = -2.38081e-07, cumulative = 3.237e-05
GAMG:  Solving for p, Initial residual = 0.0115767, Final residual = 8.14457e-08, No Iterations 11
time step continuity errors : sum local = 1.81942e-09, global = -2.80951e-10, cumulative = 3.23697e-05
smoothSolver:  Solving for epsilon, Initial residual = 0.0152078, Final residual = 7.73067e-06, No Iterations 4
smoothSolver:  Solving for k, Initial residual = 0.01952, Final residual = 2.73013e-06, No Iterations 5
ExecutionTime = 0.65 s  ClockTime = 1 s

Courant Number mean: 0.507536 max: 4.9107
deltaT = 0.002
Time = 0.07

PIMPLE: iteration 1
smoothSolver:  Solving for Ux, Initial residual = 0.00984316, Final residual = 6.16201e-06, No Iterations 4
smoothSolver:  Solving for Uy, Initial residual = 0.0093745, Final residual = 3.75788e-06, No Iterations 4
GAMG:  Solving for p, Initial residual = 0.0331773, Final residual = 0.000311153, No Iterations 3
time step continuity errors : sum local = 6.95889e-06, global = -2.0499e-07, cumulative = 3.21647e-05
GAMG:  Solving for p, Initial residual = 0.0111993, Final residual = 7.94416e-08, No Iterations 11
time step continuity errors : sum local = 1.77868e-09, global = -2.76783e-10, cumulative = 3.21644e-05
smoothSolver:  Solving for epsilon, Initial residual = 0.0148695, Final residual = 7.7318e-06, No Iterations 4
smoothSolver:  Solving for k, Initial residual = 0.0189868, Final residual = 2.72529e-06, No Iterations 5
ExecutionTime = 0.67 s  ClockTime = 1 s

Courant Number mean: 0.509806 max: 4.93379
deltaT = 0.002
Time = 0.072

PIMPLE: iteration 1
smoothSolver:  Solving for Ux, Initial residual = 0.00961382, Final residual = 5.96774e-06, No Iterations 4
smoothSolver:  Solving for Uy, Initial residual = 0.00922033, Final residual = 3.59279e-06, No Iterations 4
GAMG:  Solving for p, Initial residual = 0.0320733, Final residual = 0.000308212, No Iterations 3
time step continuity errors : sum local = 6.90195e-06, global = -2.17325e-07, cumulative = 3.19471e-05
GAMG:  Solving for p, Initial residual = 0.0108042, Final residual = 7.68278e-08, No Iterations 11
time step continuity errors : sum local = 1.72078e-09, global = -2.6786e-10, cumulative = 3.19468e-05
smoothSolver:  Solving for epsilon, Initial residual = 0.0145295, Final residual = 7.74305e-06, No Iterations 4
smoothSolver:  Solving for k, Initial residual = 0.0184916, Final residual = 2.72331e-06, No Iterations 5
ExecutionTime = 0.69 s  ClockTime = 1 s

Courant Number mean: 0.512086 max: 4.9552
deltaT = 0.002
Time = 0.074

PIMPLE: iteration 1
smoothSolver:  Solving for Ux, Initial residual = 0.00942282, Final residual = 5.75128e-06, No Iterations 4
smoothSolver:  Solving for Uy, Initial residual = 0.00908065, Final residual = 3.50012e-06, No Iterations 4
GAMG:  Solving for p, Initial residual = 0.0317536, Final residual = 0.000314814, No Iterations 3
time step continuity errors : sum local = 7.05305e-06, global = -1.71956e-07, cumulative = 3.17749e-05
GAMG:  Solving for p, Initial residual = 0.0104818, Final residual = 7.60014e-08, No Iterations 11
time step continuity errors : sum local = 1.70335e-09, global = -2.60228e-10, cumulative = 3.17746e-05
smoothSolver:  Solving for epsilon, Initial residual = 0.0141822, Final residual = 7.73775e-06, No Iterations 4
smoothSolver:  Solving for k, Initial residual = 0.0180348, Final residual = 2.71911e-06, No Iterations 5
ExecutionTime = 0.7 s  ClockTime = 1 s

Courant Number mean: 0.514415 max: 4.97486
deltaT = 0.002
Time = 0.076

PIMPLE: iteration 1
smoothSolver:  Solving for Ux, Initial residual = 0.00925218, Final residual = 5.53257e-06, No Iterations 4
smoothSolver:  Solving for Uy, Initial residual = 0.00899069, Final residual = 3.44404e-06, No Iterations 4
GAMG:  Solving for p, Initial residual = 0.0309818, Final residual = 0.000308502, No Iterations 3
time step continuity errors : sum local = 6.91714e-06, global = -1.89471e-07, cumulative = 3.15851e-05
GAMG:  Solving for p, Initial residual = 0.0101177, Final residual = 7.11492e-08, No Iterations 11
time step continuity errors : sum local = 1.59589e-09, global = -2.67749e-10, cumulative = 3.15849e-05
smoothSolver:  Solving for epsilon, Initial residual = 0.0138205, Final residual = 7.70631e-06, No Iterations 4
smoothSolver:  Solving for k, Initial residual = 0.0176016, Final residual = 2.71415e-06, No Iterations 5
ExecutionTime = 0.71 s  ClockTime = 1 s

Courant Number mean: 0.51669 max: 4.99273
deltaT = 0.002
Time = 0.078

PIMPLE: iteration 1
smoothSolver:  Solving for Ux, Initial residual = 0.00909012, Final residual = 5.33665e-06, No Iterations 4
smoothSolver:  Solving for Uy, Initial residual = 0.00890853, Final residual = 3.40292e-06, No Iterations 4
GAMG:  Solving for p, Initial residual = 0.0303772, Final residual = 0.000116272, No Iterations 4
time step continuity errors : sum local = 2.60997e-06, global = -1.46562e-07, cumulative = 3.14383e-05
GAMG:  Solving for p, Initial residual = 0.00989312, Final residual = 9.53934e-08, No Iterations 11
time step continuity errors : sum local = 2.14319e-09, global = -2.85701e-10, cumulative = 3.1438e-05
smoothSolver:  Solving for epsilon, Initial residual = 0.0134416, Final residual = 7.64045e-06, No Iterations 4
smoothSolver:  Solving for k, Initial residual = 0.0171791, Final residual = 2.6981e-06, No Iterations 5
ExecutionTime = 0.73 s  ClockTime = 1 s

Courant Number mean: 0.519048 max: 5.00875
deltaT = 0.002
Time = 0.08

PIMPLE: iteration 1
smoothSolver:  Solving for Ux, Initial residual = 0.00894016, Final residual = 5.1481e-06, No Iterations 4
smoothSolver:  Solving for Uy, Initial residual = 0.00884371, Final residual = 3.39986e-06, No Iterations 4
GAMG:  Solving for p, Initial residual = 0.0303534, Final residual = 0.000122277, No Iterations 4
time step continuity errors : sum local = 2.74757e-06, global = -1.56585e-07, cumulative = 3.12814e-05
GAMG:  Solving for p, Initial residual = 0.00978605, Final residual = 4.15789e-08, No Iterations 12
time step continuity errors : sum local = 9.347e-10, global = -1.28843e-10, cumulative = 3.12813e-05
smoothSolver:  Solving for epsilon, Initial residual = 0.0130668, Final residual = 7.53016e-06, No Iterations 4
smoothSolver:  Solving for k, Initial residual = 0.0167862, Final residual = 2.66905e-06, No Iterations 5
ExecutionTime = 0.75 s  ClockTime = 1 s

Courant Number mean: 0.521455 max: 5.02258
deltaT = 0.002
Time = 0.082

PIMPLE: iteration 1
smoothSolver:  Solving for Ux, Initial residual = 0.00882993, Final residual = 4.98605e-06, No Iterations 4
smoothSolver:  Solving for Uy, Initial residual = 0.00882242, Final residual = 3.48557e-06, No Iterations 4
GAMG:  Solving for p, Initial residual = 0.0290874, Final residual = 0.000122203, No Iterations 4
time step continuity errors : sum local = 2.74953e-06, global = -1.70666e-07, cumulative = 3.11106e-05
GAMG:  Solving for p, Initial residual = 0.00962441, Final residual = 9.66673e-08, No Iterations 11
time step continuity errors : sum local = 2.17751e-09, global = -3.14627e-10, cumulative = 3.11103e-05
smoothSolver:  Solving for epsilon, Initial residual = 0.0127361, Final residual = 7.38202e-06, No Iterations 4
smoothSolver:  Solving for k, Initial residual = 0.0164157, Final residual = 2.62382e-06, No Iterations 5
ExecutionTime = 0.76 s  ClockTime = 1 s

Courant Number mean: 0.523821 max: 5.03418
deltaT = 0.002
Time = 0.084

PIMPLE: iteration 1
smoothSolver:  Solving for Ux, Initial residual = 0.00874993, Final residual = 4.90094e-06, No Iterations 4
smoothSolver:  Solving for Uy, Initial residual = 0.00881915, Final residual = 3.62707e-06, No Iterations 4
GAMG:  Solving for p, Initial residual = 0.0296414, Final residual = 0.0001204, No Iterations 4
time step continuity errors : sum local = 2.71501e-06, global = -1.34455e-07, cumulative = 3.09759e-05
GAMG:  Solving for p, Initial residual = 0.00963261, Final residual = 9.63588e-08, No Iterations 11
time step continuity errors : sum local = 2.17602e-09, global = -3.03048e-10, cumulative = 3.09756e-05
smoothSolver:  Solving for epsilon, Initial residual = 0.0124824, Final residual = 7.2079e-06, No Iterations 4
smoothSolver:  Solving for k, Initial residual = 0.0161007, Final residual = 2.56363e-06, No Iterations 5
ExecutionTime = 0.77 s  ClockTime = 1 s

Courant Number mean: 0.526162 max: 5.04333
deltaT = 0.002
Time = 0.086

PIMPLE: iteration 1
smoothSolver:  Solving for Ux, Initial residual = 0.00869123, Final residual = 4.86899e-06, No Iterations 4
smoothSolver:  Solving for Uy, Initial residual = 0.00883656, Final residual = 3.80954e-06, No Iterations 4
GAMG:  Solving for p, Initial residual = 0.0297896, Final residual = 0.000119724, No Iterations 4
time step continuity errors : sum local = 2.70565e-06, global = -1.31802e-07, cumulative = 3.08438e-05
GAMG:  Solving for p, Initial residual = 0.00964896, Final residual = 9.53488e-08, No Iterations 11
time step continuity errors : sum local = 2.1575e-09, global = -2.88741e-10, cumulative = 3.08435e-05
smoothSolver:  Solving for epsilon, Initial residual = 0.0122533, Final residual = 7.05829e-06, No Iterations 4
smoothSolver:  Solving for k, Initial residual = 0.015833, Final residual = 2.49904e-06, No Iterations 5
ExecutionTime = 0.79 s  ClockTime = 1 s

Courant Number mean: 0.52851 max: 5.04989
deltaT = 0.002
Time = 0.088

PIMPLE: iteration 1
smoothSolver:  Solving for Ux, Initial residual = 0.00865128, Final residual = 4.9271e-06, No Iterations 4
smoothSolver:  Solving for Uy, Initial residual = 0.00888686, Final residual = 4.03361e-06, No Iterations 4
GAMG:  Solving for p, Initial residual = 0.0293268, Final residual = 0.000119148, No Iterations 4
time step continuity errors : sum local = 2.69786e-06, global = -1.39804e-07, cumulative = 3.07037e-05
GAMG:  Solving for p, Initial residual = 0.00974626, Final residual = 9.64136e-08, No Iterations 11
time step continuity errors : sum local = 2.18652e-09, global = -3.11988e-10, cumulative = 3.07034e-05
smoothSolver:  Solving for epsilon, Initial residual = 0.0120412, Final residual = 6.9262e-06, No Iterations 4
smoothSolver:  Solving for k, Initial residual = 0.0155897, Final residual = 2.43247e-06, No Iterations 5
ExecutionTime = 0.81 s  ClockTime = 1 s

Courant Number mean: 0.530829 max: 5.05389
deltaT = 0.002
Time = 0.09

PIMPLE: iteration 1
smoothSolver:  Solving for Ux, Initial residual = 0.00861877, Final residual = 5.07993e-06, No Iterations 4
smoothSolver:  Solving for Uy, Initial residual = 0.00894678, Final residual = 4.28511e-06, No Iterations 4
GAMG:  Solving for p, Initial residual = 0.0295964, Final residual = 0.000116676, No Iterations 4
time step continuity errors : sum local = 2.64921e-06, global = -1.14377e-07, cumulative = 3.0589e-05
GAMG:  Solving for p, Initial residual = 0.00998187, Final residual = 9.9071e-08, No Iterations 11
time step continuity errors : sum local = 2.25387e-09, global = -2.90933e-10, cumulative = 3.05887e-05
smoothSolver:  Solving for epsilon, Initial residual = 0.0118655, Final residual = 6.77155e-06, No Iterations 4
smoothSolver:  Solving for k, Initial residual = 0.0153574, Final residual = 2.36199e-06, No Iterations 5
ExecutionTime = 0.83 s  ClockTime = 1 s

Courant Number mean: 0.533165 max: 5.05536
deltaT = 0.002
Time = 0.092

PIMPLE: iteration 1
smoothSolver:  Solving for Ux, Initial residual = 0.00859787, Final residual = 5.27178e-06, No Iterations 4
smoothSolver:  Solving for Uy, Initial residual = 0.00902353, Final residual = 4.53122e-06, No Iterations 4
GAMG:  Solving for p, Initial residual = 0.0297133, Final residual = 0.000115847, No Iterations 4
time step continuity errors : sum local = 2.63881e-06, global = -1.46562e-07, cumulative = 3.04421e-05
GAMG:  Solving for p, Initial residual = 0.0100903, Final residual = 9.19221e-08, No Iterations 11
time step continuity errors : sum local = 2.09735e-09, global = -3.26033e-10, cumulative = 3.04418e-05
smoothSolver:  Solving for epsilon, Initial residual = 0.0117076, Final residual = 6.60085e-06, No Iterations 4
smoothSolver:  Solving for k, Initial residual = 0.015182, Final residual = 2.28705e-06, No Iterations 5
ExecutionTime = 0.84 s  ClockTime = 1 s

Courant Number mean: 0.535545 max: 5.05439
deltaT = 0.002
Time = 0.094

PIMPLE: iteration 1
smoothSolver:  Solving for Ux, Initial residual = 0.00858119, Final residual = 5.40725e-06, No Iterations 4
smoothSolver:  Solving for Uy, Initial residual = 0.00905742, Final residual = 4.77093e-06, No Iterations 4
GAMG:  Solving for p, Initial residual = 0.0297605, Final residual = 0.000294708, No Iterations 3
time step continuity errors : sum local = 6.73488e-06, global = -2.0643e-07, cumulative = 3.02354e-05
GAMG:  Solving for p, Initial residual = 0.0101553, Final residual = 6.78688e-08, No Iterations 11
time step continuity errors : sum local = 1.55494e-09, global = -2.63646e-10, cumulative = 3.02351e-05
smoothSolver:  Solving for epsilon, Initial residual = 0.0115315, Final residual = 6.41326e-06, No Iterations 4
smoothSolver:  Solving for k, Initial residual = 0.0150315, Final residual = 2.21701e-06, No Iterations 5
ExecutionTime = 0.85 s  ClockTime = 1 s

Courant Number mean: 0.537944 max: 5.0511
deltaT = 0.002
Time = 0.096

PIMPLE: iteration 1
smoothSolver:  Solving for Ux, Initial residual = 0.00855993, Final residual = 5.6378e-06, No Iterations 4
smoothSolver:  Solving for Uy, Initial residual = 0.00911178, Final residual = 5.03309e-06, No Iterations 4
GAMG:  Solving for p, Initial residual = 0.02981, Final residual = 0.000280359, No Iterations 3
time step continuity errors : sum local = 6.42874e-06, global = -2.02202e-07, cumulative = 3.00329e-05
GAMG:  Solving for p, Initial residual = 0.0102047, Final residual = 5.74027e-08, No Iterations 11
time step continuity errors : sum local = 1.31856e-09, global = -2.28732e-10, cumulative = 3.00327e-05
smoothSolver:  Solving for epsilon, Initial residual = 0.0113677, Final residual = 6.20694e-06, No Iterations 4
smoothSolver:  Solving for k, Initial residual = 0.0149161, Final residual = 2.15822e-06, No Iterations 5
ExecutionTime = 0.86 s  ClockTime = 1 s

Courant Number mean: 0.540395 max: 5.04567
deltaT = 0.002
Time = 0.098

PIMPLE: iteration 1
smoothSolver:  Solving for Ux, Initial residual = 0.00853709, Final residual = 5.86947e-06, No Iterations 4
smoothSolver:  Solving for Uy, Initial residual = 0.00919667, Final residual = 5.27367e-06, No Iterations 4
GAMG:  Solving for p, Initial residual = 0.0298686, Final residual = 0.000274889, No Iterations 3
time step continuity errors : sum local = 6.32114e-06, global = -1.90892e-07, cumulative = 2.98418e-05
GAMG:  Solving for p, Initial residual = 0.0104056, Final residual = 7.19947e-08, No Iterations 11
time step continuity errors : sum local = 1.659e-09, global = -2.5154e-10, cumulative = 2.98415e-05
smoothSolver:  Solving for epsilon, Initial residual = 0.0112732, Final residual = 6.00936e-06, No Iterations 4
smoothSolver:  Solving for k, Initial residual = 0.0148314, Final residual = 2.10296e-06, No Iterations 5
ExecutionTime = 0.88 s  ClockTime = 1 s

Courant Number mean: 0.54284 max: 5.0383
deltaT = 0.002
Time = 0.1

PIMPLE: iteration 1
smoothSolver:  Solving for Ux, Initial residual = 0.00851421, Final residual = 6.09763e-06, No Iterations 4
smoothSolver:  Solving for Uy, Initial residual = 0.00929459, Final residual = 5.52249e-06, No Iterations 4
GAMG:  Solving for p, Initial residual = 0.0298545, Final residual = 0.000275292, No Iterations 3
time step continuity errors : sum local = 6.35224e-06, global = -2.26117e-07, cumulative = 2.96154e-05
GAMG:  Solving for p, Initial residual = 0.0103821, Final residual = 6.21915e-08, No Iterations 11
time step continuity errors : sum local = 1.4388e-09, global = -2.30926e-10, cumulative = 2.96152e-05
smoothSolver:  Solving for epsilon, Initial residual = 0.0111794, Final residual = 5.83511e-06, No Iterations 4
smoothSolver:  Solving for k, Initial residual = 0.014738, Final residual = 2.06326e-06, No Iterations 5
ExecutionTime = 0.9 s  ClockTime = 1 s

Courant Number mean: 0.545258 max: 5.02929
deltaT = 0.002
Time = 0.102

PIMPLE: iteration 1
smoothSolver:  Solving for Ux, Initial residual = 0.00849181, Final residual = 6.3836e-06, No Iterations 4
smoothSolver:  Solving for Uy, Initial residual = 0.00937135, Final residual = 5.73008e-06, No Iterations 4
GAMG:  Solving for p, Initial residual = 0.0301364, Final residual = 0.000276684, No Iterations 3
time step continuity errors : sum local = 6.40801e-06, global = -2.06984e-07, cumulative = 2.94082e-05
GAMG:  Solving for p, Initial residual = 0.0104265, Final residual = 7.66997e-08, No Iterations 11
time step continuity errors : sum local = 1.78051e-09, global = -2.50515e-10, cumulative = 2.94079e-05
smoothSolver:  Solving for epsilon, Initial residual = 0.0110543, Final residual = 5.6843e-06, No Iterations 4
smoothSolver:  Solving for k, Initial residual = 0.0146219, Final residual = 2.04628e-06, No Iterations 5
ExecutionTime = 0.91 s  ClockTime = 1 s

Courant Number mean: 0.547699 max: 5.01896
deltaT = 0.002
Time = 0.104

PIMPLE: iteration 1
smoothSolver:  Solving for Ux, Initial residual = 0.00845222, Final residual = 6.66384e-06, No Iterations 4
smoothSolver:  Solving for Uy, Initial residual = 0.00942277, Final residual = 5.93505e-06, No Iterations 4
GAMG:  Solving for p, Initial residual = 0.0304809, Final residual = 0.000278019, No Iterations 3
time step continuity errors : sum local = 6.45779e-06, global = -2.45931e-07, cumulative = 2.9162e-05
GAMG:  Solving for p, Initial residual = 0.0105246, Final residual = 6.9734e-08, No Iterations 11
time step continuity errors : sum local = 1.62305e-09, global = -2.54534e-10, cumulative = 2.91618e-05
smoothSolver:  Solving for epsilon, Initial residual = 0.010988, Final residual = 5.57798e-06, No Iterations 4
smoothSolver:  Solving for k, Initial residual = 0.0145442, Final residual = 2.04055e-06, No Iterations 5
ExecutionTime = 0.92 s  ClockTime = 1 s

Courant Number mean: 0.550139 max: 5.00761
deltaT = 0.002
Time = 0.106

PIMPLE: iteration 1
smoothSolver:  Solving for Ux, Initial residual = 0.00840173, Final residual = 6.88522e-06, No Iterations 4
smoothSolver:  Solving for Uy, Initial residual = 0.00948804, Final residual = 6.12979e-06, No Iterations 4
GAMG:  Solving for p, Initial residual = 0.0296063, Final residual = 0.00028495, No Iterations 3
time step continuity errors : sum local = 6.63837e-06, global = -2.7038e-07, cumulative = 2.88914e-05
GAMG:  Solving for p, Initial residual = 0.0104557, Final residual = 6.31229e-08, No Iterations 11
time step continuity errors : sum local = 1.47333e-09, global = -2.44887e-10, cumulative = 2.88911e-05
smoothSolver:  Solving for epsilon, Initial residual = 0.0108919, Final residual = 5.55694e-06, No Iterations 4
smoothSolver:  Solving for k, Initial residual = 0.0144635, Final residual = 2.05909e-06, No Iterations 5
ExecutionTime = 0.94 s  ClockTime = 1 s

Courant Number mean: 0.552578 max: 4.99554
deltaT = 0.002
Time = 0.108

PIMPLE: iteration 1
smoothSolver:  Solving for Ux, Initial residual = 0.00835852, Final residual = 7.06976e-06, No Iterations 4
smoothSolver:  Solving for Uy, Initial residual = 0.00956182, Final residual = 6.33821e-06, No Iterations 4
GAMG:  Solving for p, Initial residual = 0.0296716, Final residual = 0.000288387, No Iterations 3
time step continuity errors : sum local = 6.74321e-06, global = -2.71949e-07, cumulative = 2.86192e-05
GAMG:  Solving for p, Initial residual = 0.0104427, Final residual = 6.69662e-08, No Iterations 11
time step continuity errors : sum local = 1.57037e-09, global = -2.54228e-10, cumulative = 2.86189e-05
smoothSolver:  Solving for epsilon, Initial residual = 0.0107642, Final residual = 5.61843e-06, No Iterations 4
smoothSolver:  Solving for k, Initial residual = 0.0143917, Final residual = 2.12146e-06, No Iterations 5
ExecutionTime = 0.95 s  ClockTime = 1 s

Courant Number mean: 0.555029 max: 4.983
deltaT = 0.002
Time = 0.11

PIMPLE: iteration 1
smoothSolver:  Solving for Ux, Initial residual = 0.00832581, Final residual = 7.22423e-06, No Iterations 4
smoothSolver:  Solving for Uy, Initial residual = 0.00963482, Final residual = 6.50427e-06, No Iterations 4
GAMG:  Solving for p, Initial residual = 0.0300273, Final residual = 0.000299145, No Iterations 3
time step continuity errors : sum local = 7.02751e-06, global = -2.87862e-07, cumulative = 2.83311e-05
GAMG:  Solving for p, Initial residual = 0.0104174, Final residual = 6.50469e-08, No Iterations 11
time step continuity errors : sum local = 1.53257e-09, global = -2.51221e-10, cumulative = 2.83308e-05
smoothSolver:  Solving for epsilon, Initial residual = 0.0106379, Final residual = 5.75443e-06, No Iterations 4
smoothSolver:  Solving for k, Initial residual = 0.0142966, Final residual = 2.19729e-06, No Iterations 5
ExecutionTime = 0.97 s  ClockTime = 1 s

Courant Number mean: 0.557465 max: 4.97026
deltaT = 0.002
Time = 0.112

PIMPLE: iteration 1
smoothSolver:  Solving for Ux, Initial residual = 0.00828547, Final residual = 7.31178e-06, No Iterations 4
smoothSolver:  Solving for Uy, Initial residual = 0.00973275, Final residual = 6.67458e-06, No Iterations 4
GAMG:  Solving for p, Initial residual = 0.0297037, Final residual = 0.000119083, No Iterations 4
time step continuity errors : sum local = 2.81129e-06, global = -1.58037e-07, cumulative = 2.81728e-05
GAMG:  Solving for p, Initial residual = 0.0104802, Final residual = 8.11055e-08, No Iterations 11
time step continuity errors : sum local = 1.9205e-09, global = -2.21382e-10, cumulative = 2.81726e-05
smoothSolver:  Solving for epsilon, Initial residual = 0.0105029, Final residual = 5.90805e-06, No Iterations 4
smoothSolver:  Solving for k, Initial residual = 0.0141998, Final residual = 2.30825e-06, No Iterations 5
ExecutionTime = 0.98 s  ClockTime = 1 s

Courant Number mean: 0.559939 max: 4.9576
deltaT = 0.002
Time = 0.114

PIMPLE: iteration 1
smoothSolver:  Solving for Ux, Initial residual = 0.00823821, Final residual = 7.32994e-06, No Iterations 4
smoothSolver:  Solving for Uy, Initial residual = 0.0098303, Final residual = 6.81127e-06, No Iterations 4
GAMG:  Solving for p, Initial residual = 0.0303542, Final residual = 0.000125469, No Iterations 4
time step continuity errors : sum local = 2.97556e-06, global = -1.79568e-07, cumulative = 2.7993e-05
GAMG:  Solving for p, Initial residual = 0.0106327, Final residual = 8.95606e-08, No Iterations 11
time step continuity errors : sum local = 2.13084e-09, global = -2.54458e-10, cumulative = 2.79927e-05
smoothSolver:  Solving for epsilon, Initial residual = 0.0104115, Final residual = 6.11616e-06, No Iterations 4
smoothSolver:  Solving for k, Initial residual = 0.0141155, Final residual = 2.43499e-06, No Iterations 5
ExecutionTime = 0.99 s  ClockTime = 1 s

Courant Number mean: 0.562368 max: 4.94523
deltaT = 0.002
Time = 0.116

PIMPLE: iteration 1
smoothSolver:  Solving for Ux, Initial residual = 0.00818676, Final residual = 7.26324e-06, No Iterations 4
smoothSolver:  Solving for Uy, Initial residual = 0.00992592, Final residual = 6.91624e-06, No Iterations 4
GAMG:  Solving for p, Initial residual = 0.029522, Final residual = 0.000127772, No Iterations 4
time step continuity errors : sum local = 3.04437e-06, global = -1.6482e-07, cumulative = 2.78279e-05
GAMG:  Solving for p, Initial residual = 0.0107803, Final residual = 9.48384e-08, No Iterations 11
time step continuity errors : sum local = 2.26723e-09, global = -2.3075e-10, cumulative = 2.78277e-05
smoothSolver:  Solving for epsilon, Initial residual = 0.0103293, Final residual = 6.36456e-06, No Iterations 4
smoothSolver:  Solving for k, Initial residual = 0.0140356, Final residual = 2.56691e-06, No Iterations 5
ExecutionTime = 1.01 s  ClockTime = 1 s

Courant Number mean: 0.564756 max: 4.93335
deltaT = 0.002
Time = 0.118

PIMPLE: iteration 1
smoothSolver:  Solving for Ux, Initial residual = 0.00814484, Final residual = 7.1908e-06, No Iterations 4
smoothSolver:  Solving for Uy, Initial residual = 0.0100223, Final residual = 6.99968e-06, No Iterations 4
GAMG:  Solving for p, Initial residual = 0.0292953, Final residual = 0.000129023, No Iterations 4
time step continuity errors : sum local = 3.09036e-06, global = -1.72307e-07, cumulative = 2.76554e-05
GAMG:  Solving for p, Initial residual = 0.0107917, Final residual = 9.56233e-08, No Iterations 11
time step continuity errors : sum local = 2.29909e-09, global = -2.49291e-10, cumulative = 2.76551e-05
smoothSolver:  Solving for epsilon, Initial residual = 0.0102724, Final residual = 6.67401e-06, No Iterations 4
smoothSolver:  Solving for k, Initial residual = 0.0139882, Final residual = 2.71298e-06, No Iterations 5
ExecutionTime = 1.02 s  ClockTime = 1 s

Courant Number mean: 0.567084 max: 4.92206
deltaT = 0.002
Time = 0.12

PIMPLE: iteration 1
smoothSolver:  Solving for Ux, Initial residual = 0.00809855, Final residual = 7.11695e-06, No Iterations 4
smoothSolver:  Solving for Uy, Initial residual = 0.0101295, Final residual = 7.06582e-06, No Iterations 4
GAMG:  Solving for p, Initial residual = 0.0297866, Final residual = 0.00013016, No Iterations 4
time step continuity errors : sum local = 3.1358e-06, global = -1.73883e-07, cumulative = 2.74812e-05
GAMG:  Solving for p, Initial residual = 0.0109017, Final residual = 9.83161e-08, No Iterations 11
time step continuity errors : sum local = 2.37831e-09, global = -2.89875e-10, cumulative = 2.7481e-05
smoothSolver:  Solving for epsilon, Initial residual = 0.0102536, Final residual = 7.00853e-06, No Iterations 4
smoothSolver:  Solving for k, Initial residual = 0.0139792, Final residual = 2.87522e-06, No Iterations 5
ExecutionTime = 1.04 s  ClockTime = 1 s

Courant Number mean: 0.569396 max: 4.91152
deltaT = 0.002
Time = 0.122

PIMPLE: iteration 1
smoothSolver:  Solving for Ux, Initial residual = 0.00805268, Final residual = 7.03636e-06, No Iterations 4
smoothSolver:  Solving for Uy, Initial residual = 0.0102436, Final residual = 7.16657e-06, No Iterations 4
GAMG:  Solving for p, Initial residual = 0.0299989, Final residual = 0.000131022, No Iterations 4
time step continuity errors : sum local = 3.17456e-06, global = -1.75488e-07, cumulative = 2.73055e-05
GAMG:  Solving for p, Initial residual = 0.0109804, Final residual = 3.81107e-08, No Iterations 12
time step continuity errors : sum local = 9.26829e-10, global = -1.21114e-10, cumulative = 2.73053e-05
smoothSolver:  Solving for epsilon, Initial residual = 0.0102641, Final residual = 7.35355e-06, No Iterations 4
smoothSolver:  Solving for k, Initial residual = 0.014014, Final residual = 3.05105e-06, No Iterations 5
ExecutionTime = 1.05 s  ClockTime = 1 s

Courant Number mean: 0.571685 max: 4.90186
deltaT = 0.002
Time = 0.124

PIMPLE: iteration 1
smoothSolver:  Solving for Ux, Initial residual = 0.00800654, Final residual = 7.02423e-06, No Iterations 4
smoothSolver:  Solving for Uy, Initial residual = 0.0103545, Final residual = 7.26131e-06, No Iterations 4
GAMG:  Solving for p, Initial residual = 0.0297375, Final residual = 0.000128537, No Iterations 4
time step continuity errors : sum local = 3.13308e-06, global = -1.63416e-07, cumulative = 2.71419e-05
GAMG:  Solving for p, Initial residual = 0.0111698, Final residual = 4.23457e-08, No Iterations 12
time step continuity errors : sum local = 1.03652e-09, global = -1.30725e-10, cumulative = 2.71418e-05
smoothSolver:  Solving for epsilon, Initial residual = 0.0103328, Final residual = 7.77178e-06, No Iterations 4
smoothSolver:  Solving for k, Initial residual = 0.0140693, Final residual = 3.21853e-06, No Iterations 5
ExecutionTime = 1.07 s  ClockTime = 1 s

Courant Number mean: 0.573923 max: 4.89321
deltaT = 0.002
Time = 0.126

PIMPLE: iteration 1
smoothSolver:  Solving for Ux, Initial residual = 0.00796921, Final residual = 6.99579e-06, No Iterations 4
smoothSolver:  Solving for Uy, Initial residual = 0.0104362, Final residual = 7.33011e-06, No Iterations 4
GAMG:  Solving for p, Initial residual = 0.0298166, Final residual = 0.000133279, No Iterations 4
time step continuity errors : sum local = 3.27096e-06, global = -1.69434e-07, cumulative = 2.69724e-05
GAMG:  Solving for p, Initial residual = 0.0113236, Final residual = 4.02108e-08, No Iterations 12
time step continuity errors : sum local = 9.91273e-10, global = -1.21936e-10, cumulative = 2.69722e-05
smoothSolver:  Solving for epsilon, Initial residual = 0.0104449, Final residual = 8.25035e-06, No Iterations 4
smoothSolver:  Solving for k, Initial residual = 0.0141345, Final residual = 3.38302e-06, No Iterations 5
ExecutionTime = 1.08 s  ClockTime = 1 s

Courant Number mean: 0.576209 max: 4.88568
deltaT = 0.002
Time = 0.128

PIMPLE: iteration 1
smoothSolver:  Solving for Ux, Initial residual = 0.00794828, Final residual = 6.93881e-06, No Iterations 4
smoothSolver:  Solving for Uy, Initial residual = 0.0105311, Final residual = 7.41051e-06, No Iterations 4
GAMG:  Solving for p, Initial residual = 0.0298604, Final residual = 0.000129361, No Iterations 4
time step continuity errors : sum local = 3.19738e-06, global = -1.20245e-07, cumulative = 2.6852e-05
GAMG:  Solving for p, Initial residual = 0.0114007, Final residual = 4.17888e-08, No Iterations 12
time step continuity errors : sum local = 1.03745e-09, global = -3.40965e-11, cumulative = 2.6852e-05
smoothSolver:  Solving for epsilon, Initial residual = 0.0105867, Final residual = 8.70021e-06, No Iterations 4
smoothSolver:  Solving for k, Initial residual = 0.0142466, Final residual = 3.55232e-06, No Iterations 5
ExecutionTime = 1.09 s  ClockTime = 1 s

Courant Number mean: 0.578488 max: 4.87925
deltaT = 0.002
Time = 0.13

PIMPLE: iteration 1
smoothSolver:  Solving for Ux, Initial residual = 0.00794348, Final residual = 6.88462e-06, No Iterations 4
smoothSolver:  Solving for Uy, Initial residual = 0.0106329, Final residual = 7.53499e-06, No Iterations 4
GAMG:  Solving for p, Initial residual = 0.0300209, Final residual = 0.000131821, No Iterations 4
time step continuity errors : sum local = 3.28141e-06, global = -1.23316e-07, cumulative = 2.67286e-05
GAMG:  Solving for p, Initial residual = 0.0114057, Final residual = 4.0539e-08, No Iterations 12
time step continuity errors : sum local = 1.014e-09, global = -3.6441e-11, cumulative = 2.67286e-05
smoothSolver:  Solving for epsilon, Initial residual = 0.0107618, Final residual = 9.13231e-06, No Iterations 4
smoothSolver:  Solving for k, Initial residual = 0.0143661, Final residual = 3.72179e-06, No Iterations 5
ExecutionTime = 1.12 s  ClockTime = 1 s

Courant Number mean: 0.580763 max: 4.87407
deltaT = 0.002
Time = 0.132

PIMPLE: iteration 1
smoothSolver:  Solving for Ux, Initial residual = 0.00794697, Final residual = 6.82915e-06, No Iterations 4
smoothSolver:  Solving for Uy, Initial residual = 0.0107075, Final residual = 7.71415e-06, No Iterations 4
GAMG:  Solving for p, Initial residual = 0.0303763, Final residual = 0.00013209, No Iterations 4
time step continuity errors : sum local = 3.31002e-06, global = -1.16584e-07, cumulative = 2.6612e-05
GAMG:  Solving for p, Initial residual = 0.011533, Final residual = 3.99314e-08, No Iterations 12
time step continuity errors : sum local = 1.00479e-09, global = -2.3107e-11, cumulative = 2.6612e-05
smoothSolver:  Solving for epsilon, Initial residual = 0.0109554, Final residual = 9.60359e-06, No Iterations 4
smoothSolver:  Solving for k, Initial residual = 0.0144902, Final residual = 3.86986e-06, No Iterations 5
ExecutionTime = 1.13 s  ClockTime = 1 s

Courant Number mean: 0.583034 max: 4.87013
deltaT = 0.002
Time = 0.134

PIMPLE: iteration 1
smoothSolver:  Solving for Ux, Initial residual = 0.00795896, Final residual = 6.78401e-06, No Iterations 4
smoothSolver:  Solving for Uy, Initial residual = 0.0107782, Final residual = 7.85427e-06, No Iterations 4
GAMG:  Solving for p, Initial residual = 0.0299266, Final residual = 0.000133983, No Iterations 4
time step continuity errors : sum local = 3.37704e-06, global = -2.35784e-08, cumulative = 2.65884e-05
GAMG:  Solving for p, Initial residual = 0.0116335, Final residual = 8.69003e-08, No Iterations 11
time step continuity errors : sum local = 2.1985e-09, global = 3.79499e-10, cumulative = 2.65888e-05
smoothSolver:  Solving for epsilon, Initial residual = 0.0111466, Final residual = 2.15698e-06, No Iterations 5
smoothSolver:  Solving for k, Initial residual = 0.0146369, Final residual = 3.99299e-06, No Iterations 5
ExecutionTime = 1.15 s  ClockTime = 1 s

Courant Number mean: 0.585339 max: 4.86731
deltaT = 0.002
Time = 0.136

PIMPLE: iteration 1
smoothSolver:  Solving for Ux, Initial residual = 0.00798231, Final residual = 6.70867e-06, No Iterations 4
smoothSolver:  Solving for Uy, Initial residual = 0.0108859, Final residual = 8.00119e-06, No Iterations 4
GAMG:  Solving for p, Initial residual = 0.0298646, Final residual = 0.000126987, No Iterations 4
time step continuity errors : sum local = 3.21768e-06, global = -6.86697e-08, cumulative = 2.65201e-05
GAMG:  Solving for p, Initial residual = 0.011638, Final residual = 9.45124e-08, No Iterations 11
time step continuity errors : sum local = 2.4035e-09, global = 2.89914e-10, cumulative = 2.65204e-05
smoothSolver:  Solving for epsilon, Initial residual = 0.0113336, Final residual = 2.2031e-06, No Iterations 5
smoothSolver:  Solving for k, Initial residual = 0.0147589, Final residual = 4.07783e-06, No Iterations 5
ExecutionTime = 1.17 s  ClockTime = 2 s

Courant Number mean: 0.587653 max: 4.86557
deltaT = 0.002
Time = 0.138

PIMPLE: iteration 1
smoothSolver:  Solving for Ux, Initial residual = 0.00802547, Final residual = 6.67395e-06, No Iterations 4
smoothSolver:  Solving for Uy, Initial residual = 0.0109791, Final residual = 8.1013e-06, No Iterations 4
GAMG:  Solving for p, Initial residual = 0.0301191, Final residual = 0.000127767, No Iterations 4
time step continuity errors : sum local = 3.25307e-06, global = -2.61676e-10, cumulative = 2.65202e-05
GAMG:  Solving for p, Initial residual = 0.0116992, Final residual = 6.98306e-08, No Iterations 11
time step continuity errors : sum local = 1.7835e-09, global = 3.58663e-10, cumulative = 2.65205e-05
smoothSolver:  Solving for epsilon, Initial residual = 0.011545, Final residual = 2.20966e-06, No Iterations 5
smoothSolver:  Solving for k, Initial residual = 0.0148687, Final residual = 4.11405e-06, No Iterations 5
ExecutionTime = 1.18 s  ClockTime = 2 s

Courant Number mean: 0.589899 max: 4.86496
deltaT = 0.002
Time = 0.14

PIMPLE: iteration 1
smoothSolver:  Solving for Ux, Initial residual = 0.00808025, Final residual = 6.63293e-06, No Iterations 4
smoothSolver:  Solving for Uy, Initial residual = 0.0110609, Final residual = 8.19753e-06, No Iterations 4
GAMG:  Solving for p, Initial residual = 0.0299428, Final residual = 0.000127892, No Iterations 4
time step continuity errors : sum local = 3.27165e-06, global = -1.57298e-08, cumulative = 2.65048e-05
[...]
time step continuity errors : sum local = 1.96571e-09, global = -3.70874e-10, cumulative = 3.30075e-05
smoothSolver:  Solving for epsilon, Initial residual = 0.000239166, Final residual = 6.68229e-06, No Iterations 2
smoothSolver:  Solving for k, Initial residual = 0.000395851, Final residual = 9.8518e-06, No Iterations 2
ExecutionTime = 6.96 s  ClockTime = 8 s

Courant Number mean: 0.538138 max: 4.98667
deltaT = 0.002
Time = 0.962

PIMPLE: iteration 1
smoothSolver:  Solving for Ux, Initial residual = 0.000392268, Final residual = 2.74598e-06, No Iterations 2
smoothSolver:  Solving for Uy, Initial residual = 0.000366757, Final residual = 4.27864e-06, No Iterations 2
GAMG:  Solving for p, Initial residual = 0.000801284, Final residual = 5.77213e-06, No Iterations 3
time step continuity errors : sum local = 1.44615e-07, global = -1.16653e-08, cumulative = 3.29959e-05
GAMG:  Solving for p, Initial residual = 0.000185861, Final residual = 7.92647e-08, No Iterations 6
time step continuity errors : sum local = 1.9859e-09, global = -3.71296e-10, cumulative = 3.29955e-05
smoothSolver:  Solving for epsilon, Initial residual = 0.000233496, Final residual = 6.42286e-06, No Iterations 2
smoothSolver:  Solving for k, Initial residual = 0.000390623, Final residual = 9.70526e-06, No Iterations 2
ExecutionTime = 6.96 s  ClockTime = 8 s

Courant Number mean: 0.538125 max: 4.98757
deltaT = 0.002
Time = 0.964

PIMPLE: iteration 1
smoothSolver:  Solving for Ux, Initial residual = 0.000390127, Final residual = 2.71777e-06, No Iterations 2
smoothSolver:  Solving for Uy, Initial residual = 0.000365693, Final residual = 4.24603e-06, No Iterations 2
GAMG:  Solving for p, Initial residual = 0.000773941, Final residual = 5.64108e-06, No Iterations 3
time step continuity errors : sum local = 1.41338e-07, global = -1.07438e-08, cumulative = 3.29848e-05
GAMG:  Solving for p, Initial residual = 0.000181802, Final residual = 7.98129e-08, No Iterations 6
time step continuity errors : sum local = 1.99976e-09, global = -3.59036e-10, cumulative = 3.29844e-05
smoothSolver:  Solving for epsilon, Initial residual = 0.000228436, Final residual = 6.19827e-06, No Iterations 2
smoothSolver:  Solving for k, Initial residual = 0.00038576, Final residual = 9.57232e-06, No Iterations 2
ExecutionTime = 6.98 s  ClockTime = 8 s

Courant Number mean: 0.538112 max: 4.98846
deltaT = 0.002
Time = 0.966

PIMPLE: iteration 1
smoothSolver:  Solving for Ux, Initial residual = 0.000387901, Final residual = 2.68542e-06, No Iterations 2
smoothSolver:  Solving for Uy, Initial residual = 0.000364666, Final residual = 4.21374e-06, No Iterations 2
GAMG:  Solving for p, Initial residual = 0.000769615, Final residual = 5.602e-06, No Iterations 3
time step continuity errors : sum local = 1.40367e-07, global = -1.02313e-08, cumulative = 3.29742e-05
GAMG:  Solving for p, Initial residual = 0.000180594, Final residual = 7.81721e-08, No Iterations 6
time step continuity errors : sum local = 1.95876e-09, global = -3.49981e-10, cumulative = 3.29738e-05
smoothSolver:  Solving for epsilon, Initial residual = 0.000223863, Final residual = 5.99858e-06, No Iterations 2
smoothSolver:  Solving for k, Initial residual = 0.000381349, Final residual = 9.45717e-06, No Iterations 2
ExecutionTime = 6.99 s  ClockTime = 8 s

Courant Number mean: 0.538099 max: 4.98934
deltaT = 0.002
Time = 0.968

PIMPLE: iteration 1
smoothSolver:  Solving for Ux, Initial residual = 0.000385789, Final residual = 2.65918e-06, No Iterations 2
smoothSolver:  Solving for Uy, Initial residual = 0.000363884, Final residual = 4.19474e-06, No Iterations 2
GAMG:  Solving for p, Initial residual = 0.000765577, Final residual = 5.60297e-06, No Iterations 3
time step continuity errors : sum local = 1.40398e-07, global = -1.04576e-08, cumulative = 3.29634e-05
GAMG:  Solving for p, Initial residual = 0.000180244, Final residual = 7.75123e-08, No Iterations 6
time step continuity errors : sum local = 1.94231e-09, global = -3.49717e-10, cumulative = 3.2963e-05
smoothSolver:  Solving for epsilon, Initial residual = 0.000219757, Final residual = 5.8173e-06, No Iterations 2
smoothSolver:  Solving for k, Initial residual = 0.000377209, Final residual = 9.36603e-06, No Iterations 2
ExecutionTime = 7 s  ClockTime = 8 s

Courant Number mean: 0.538086 max: 4.99021
deltaT = 0.002
Time = 0.97

PIMPLE: iteration 1
smoothSolver:  Solving for Ux, Initial residual = 0.000384065, Final residual = 2.63327e-06, No Iterations 2
smoothSolver:  Solving for Uy, Initial residual = 0.000362729, Final residual = 4.16014e-06, No Iterations 2
GAMG:  Solving for p, Initial residual = 0.000772204, Final residual = 5.52318e-06, No Iterations 3
time step continuity errors : sum local = 1.38407e-07, global = -9.63394e-09, cumulative = 3.29534e-05
GAMG:  Solving for p, Initial residual = 0.000178638, Final residual = 8.16492e-08, No Iterations 6
time step continuity errors : sum local = 2.04613e-09, global = -3.47499e-10, cumulative = 3.2953e-05
smoothSolver:  Solving for epsilon, Initial residual = 0.000216074, Final residual = 5.6597e-06, No Iterations 2
smoothSolver:  Solving for k, Initial residual = 0.00037342, Final residual = 9.29136e-06, No Iterations 2
ExecutionTime = 7.02 s  ClockTime = 8 s

Courant Number mean: 0.538074 max: 4.99107
deltaT = 0.002
Time = 0.972

PIMPLE: iteration 1
smoothSolver:  Solving for Ux, Initial residual = 0.000382314, Final residual = 2.6086e-06, No Iterations 2
smoothSolver:  Solving for Uy, Initial residual = 0.000361784, Final residual = 4.13808e-06, No Iterations 2
GAMG:  Solving for p, Initial residual = 0.000773843, Final residual = 5.56188e-06, No Iterations 3
time step continuity errors : sum local = 1.39388e-07, global = -9.82967e-09, cumulative = 3.29432e-05
GAMG:  Solving for p, Initial residual = 0.000178505, Final residual = 7.62913e-08, No Iterations 6
time step continuity errors : sum local = 1.91202e-09, global = -3.38019e-10, cumulative = 3.29429e-05
smoothSolver:  Solving for epsilon, Initial residual = 0.000212648, Final residual = 5.52068e-06, No Iterations 2
smoothSolver:  Solving for k, Initial residual = 0.000369929, Final residual = 9.23156e-06, No Iterations 2
ExecutionTime = 7.03 s  ClockTime = 8 s

Courant Number mean: 0.538061 max: 4.99191
deltaT = 0.002
Time = 0.974

PIMPLE: iteration 1
smoothSolver:  Solving for Ux, Initial residual = 0.000380773, Final residual = 2.58306e-06, No Iterations 2
smoothSolver:  Solving for Uy, Initial residual = 0.000360871, Final residual = 4.11287e-06, No Iterations 2
GAMG:  Solving for p, Initial residual = 0.000787301, Final residual = 5.54971e-06, No Iterations 3
time step continuity errors : sum local = 1.39093e-07, global = -9.44869e-09, cumulative = 3.29334e-05
GAMG:  Solving for p, Initial residual = 0.000177808, Final residual = 7.69819e-08, No Iterations 6
time step continuity errors : sum local = 1.92945e-09, global = -3.36646e-10, cumulative = 3.29331e-05
smoothSolver:  Solving for epsilon, Initial residual = 0.000209473, Final residual = 5.40444e-06, No Iterations 2
smoothSolver:  Solving for k, Initial residual = 0.000366838, Final residual = 9.18264e-06, No Iterations 2
ExecutionTime = 7.04 s  ClockTime = 8 s

Courant Number mean: 0.538048 max: 4.99274
deltaT = 0.002
Time = 0.976

PIMPLE: iteration 1
smoothSolver:  Solving for Ux, Initial residual = 0.000379333, Final residual = 2.55953e-06, No Iterations 2
smoothSolver:  Solving for Uy, Initial residual = 0.00036007, Final residual = 4.09305e-06, No Iterations 2
GAMG:  Solving for p, Initial residual = 0.000765846, Final residual = 5.45758e-06, No Iterations 3
time step continuity errors : sum local = 1.36791e-07, global = -9.24217e-09, cumulative = 3.29238e-05
GAMG:  Solving for p, Initial residual = 0.000177872, Final residual = 6.79511e-08, No Iterations 6
time step continuity errors : sum local = 1.70317e-09, global = -3.19432e-10, cumulative = 3.29235e-05
smoothSolver:  Solving for epsilon, Initial residual = 0.000206519, Final residual = 5.29629e-06, No Iterations 2
smoothSolver:  Solving for k, Initial residual = 0.000364033, Final residual = 9.15126e-06, No Iterations 2
ExecutionTime = 7.04 s  ClockTime = 8 s

Courant Number mean: 0.538037 max: 4.99356
deltaT = 0.002
Time = 0.978

PIMPLE: iteration 1
smoothSolver:  Solving for Ux, Initial residual = 0.000377637, Final residual = 2.5312e-06, No Iterations 2
smoothSolver:  Solving for Uy, Initial residual = 0.000359047, Final residual = 4.05842e-06, No Iterations 2
GAMG:  Solving for p, Initial residual = 0.000775841, Final residual = 5.29604e-06, No Iterations 3
time step continuity errors : sum local = 1.32746e-07, global = -8.70592e-09, cumulative = 3.29148e-05
GAMG:  Solving for p, Initial residual = 0.000178237, Final residual = 8.2403e-08, No Iterations 6
time step continuity errors : sum local = 2.06545e-09, global = -3.29257e-10, cumulative = 3.29145e-05
smoothSolver:  Solving for epsilon, Initial residual = 0.000203732, Final residual = 5.19316e-06, No Iterations 2
smoothSolver:  Solving for k, Initial residual = 0.000361304, Final residual = 9.12525e-06, No Iterations 2
ExecutionTime = 7.05 s  ClockTime = 8 s

Courant Number mean: 0.538026 max: 4.99436
deltaT = 0.002
Time = 0.98

PIMPLE: iteration 1
smoothSolver:  Solving for Ux, Initial residual = 0.000376165, Final residual = 2.5066e-06, No Iterations 2
smoothSolver:  Solving for Uy, Initial residual = 0.000358113, Final residual = 4.03365e-06, No Iterations 2
GAMG:  Solving for p, Initial residual = 0.00078739, Final residual = 5.08015e-06, No Iterations 3
time step continuity errors : sum local = 1.27335e-07, global = -8.02151e-09, cumulative = 3.29065e-05
GAMG:  Solving for p, Initial residual = 0.000175613, Final residual = 9.07266e-08, No Iterations 6
time step continuity errors : sum local = 2.27405e-09, global = -3.29462e-10, cumulative = 3.29061e-05
smoothSolver:  Solving for epsilon, Initial residual = 0.00020107, Final residual = 5.10224e-06, No Iterations 2
smoothSolver:  Solving for k, Initial residual = 0.000358829, Final residual = 9.10862e-06, No Iterations 2
ExecutionTime = 7.08 s  ClockTime = 8 s

Courant Number mean: 0.538017 max: 4.99513
deltaT = 0.002
Time = 0.982

PIMPLE: iteration 1
smoothSolver:  Solving for Ux, Initial residual = 0.000375, Final residual = 2.48448e-06, No Iterations 2
smoothSolver:  Solving for Uy, Initial residual = 0.000357033, Final residual = 4.02159e-06, No Iterations 2
GAMG:  Solving for p, Initial residual = 0.000743858, Final residual = 5.17633e-06, No Iterations 3
time step continuity errors : sum local = 1.29743e-07, global = -9.45978e-09, cumulative = 3.28967e-05
GAMG:  Solving for p, Initial residual = 0.000174365, Final residual = 8.09873e-08, No Iterations 6
time step continuity errors : sum local = 2.02988e-09, global = -3.30283e-10, cumulative = 3.28963e-05
smoothSolver:  Solving for epsilon, Initial residual = 0.000198618, Final residual = 5.02112e-06, No Iterations 2
smoothSolver:  Solving for k, Initial residual = 0.000356564, Final residual = 9.10783e-06, No Iterations 2
ExecutionTime = 7.09 s  ClockTime = 8 s

Courant Number mean: 0.538009 max: 4.99589
deltaT = 0.002
Time = 0.984

PIMPLE: iteration 1
smoothSolver:  Solving for Ux, Initial residual = 0.000373985, Final residual = 2.46179e-06, No Iterations 2
smoothSolver:  Solving for Uy, Initial residual = 0.000355545, Final residual = 3.9837e-06, No Iterations 2
GAMG:  Solving for p, Initial residual = 0.000747546, Final residual = 5.22693e-06, No Iterations 3
time step continuity errors : sum local = 1.31006e-07, global = -7.59069e-09, cumulative = 3.28888e-05
GAMG:  Solving for p, Initial residual = 0.000174753, Final residual = 8.74182e-08, No Iterations 6
time step continuity errors : sum local = 2.19092e-09, global = -3.20947e-10, cumulative = 3.28884e-05
smoothSolver:  Solving for epsilon, Initial residual = 0.000196295, Final residual = 4.94164e-06, No Iterations 2
smoothSolver:  Solving for k, Initial residual = 0.000354509, Final residual = 9.11743e-06, No Iterations 2
ExecutionTime = 7.1 s  ClockTime = 8 s

Courant Number mean: 0.538002 max: 4.99663
deltaT = 0.002
Time = 0.986

PIMPLE: iteration 1
smoothSolver:  Solving for Ux, Initial residual = 0.000372893, Final residual = 2.43757e-06, No Iterations 2
smoothSolver:  Solving for Uy, Initial residual = 0.00035445, Final residual = 3.96624e-06, No Iterations 2
GAMG:  Solving for p, Initial residual = 0.000730534, Final residual = 5.3316e-06, No Iterations 3
time step continuity errors : sum local = 1.33622e-07, global = -8.79424e-09, cumulative = 3.28796e-05
GAMG:  Solving for p, Initial residual = 0.000172737, Final residual = 7.85139e-08, No Iterations 6
time step continuity errors : sum local = 1.96768e-09, global = -3.14801e-10, cumulative = 3.28793e-05
smoothSolver:  Solving for epsilon, Initial residual = 0.000194121, Final residual = 4.86391e-06, No Iterations 2
smoothSolver:  Solving for k, Initial residual = 0.000352538, Final residual = 9.12602e-06, No Iterations 2
ExecutionTime = 7.12 s  ClockTime = 8 s

Courant Number mean: 0.537995 max: 4.99734
deltaT = 0.002
Time = 0.988

PIMPLE: iteration 1
smoothSolver:  Solving for Ux, Initial residual = 0.000372003, Final residual = 2.42215e-06, No Iterations 2
smoothSolver:  Solving for Uy, Initial residual = 0.000353079, Final residual = 3.93843e-06, No Iterations 2
GAMG:  Solving for p, Initial residual = 0.000722037, Final residual = 5.15407e-06, No Iterations 3
time step continuity errors : sum local = 1.29169e-07, global = -7.65221e-09, cumulative = 3.28717e-05
GAMG:  Solving for p, Initial residual = 0.000169159, Final residual = 8.01508e-08, No Iterations 6
time step continuity errors : sum local = 2.00865e-09, global = -3.07276e-10, cumulative = 3.28714e-05
smoothSolver:  Solving for epsilon, Initial residual = 0.000192082, Final residual = 4.7949e-06, No Iterations 2
smoothSolver:  Solving for k, Initial residual = 0.000350682, Final residual = 9.13989e-06, No Iterations 2
ExecutionTime = 7.12 s  ClockTime = 8 s

Courant Number mean: 0.537988 max: 4.99804
deltaT = 0.002
Time = 0.99

PIMPLE: iteration 1
smoothSolver:  Solving for Ux, Initial residual = 0.000371011, Final residual = 2.40345e-06, No Iterations 2
smoothSolver:  Solving for Uy, Initial residual = 0.000351851, Final residual = 3.92664e-06, No Iterations 2
GAMG:  Solving for p, Initial residual = 0.00071069, Final residual = 5.09363e-06, No Iterations 3
time step continuity errors : sum local = 1.27653e-07, global = -8.63869e-09, cumulative = 3.28627e-05
GAMG:  Solving for p, Initial residual = 0.000167335, Final residual = 7.34346e-08, No Iterations 6
time step continuity errors : sum local = 1.84036e-09, global = -3.0366e-10, cumulative = 3.28624e-05
smoothSolver:  Solving for epsilon, Initial residual = 0.000190065, Final residual = 4.73375e-06, No Iterations 2
smoothSolver:  Solving for k, Initial residual = 0.000349027, Final residual = 9.157e-06, No Iterations 2
ExecutionTime = 7.14 s  ClockTime = 8 s

Courant Number mean: 0.537981 max: 4.99871
deltaT = 0.002
Time = 0.992

PIMPLE: iteration 1
smoothSolver:  Solving for Ux, Initial residual = 0.000370117, Final residual = 2.39183e-06, No Iterations 2
smoothSolver:  Solving for Uy, Initial residual = 0.000350545, Final residual = 3.90387e-06, No Iterations 2
GAMG:  Solving for p, Initial residual = 0.000703071, Final residual = 4.92399e-06, No Iterations 3
time step continuity errors : sum local = 1.23401e-07, global = -7.21343e-09, cumulative = 3.28552e-05
GAMG:  Solving for p, Initial residual = 0.000167105, Final residual = 6.97385e-08, No Iterations 6
time step continuity errors : sum local = 1.74768e-09, global = -2.83336e-10, cumulative = 3.28549e-05
smoothSolver:  Solving for epsilon, Initial residual = 0.000188112, Final residual = 4.67962e-06, No Iterations 2
smoothSolver:  Solving for k, Initial residual = 0.000347614, Final residual = 9.1741e-06, No Iterations 2
ExecutionTime = 7.15 s  ClockTime = 8 s

Courant Number mean: 0.537974 max: 4.99937
deltaT = 0.002
Time = 0.994

PIMPLE: iteration 1
smoothSolver:  Solving for Ux, Initial residual = 0.000368655, Final residual = 2.36818e-06, No Iterations 2
smoothSolver:  Solving for Uy, Initial residual = 0.000349113, Final residual = 3.87524e-06, No Iterations 2
GAMG:  Solving for p, Initial residual = 0.00070765, Final residual = 4.79338e-06, No Iterations 3
time step continuity errors : sum local = 1.20123e-07, global = -8.49149e-09, cumulative = 3.28464e-05
GAMG:  Solving for p, Initial residual = 0.000166445, Final residual = 7.09161e-08, No Iterations 6
time step continuity errors : sum local = 1.77712e-09, global = -2.90681e-10, cumulative = 3.28461e-05
smoothSolver:  Solving for epsilon, Initial residual = 0.000186536, Final residual = 4.62825e-06, No Iterations 2
smoothSolver:  Solving for k, Initial residual = 0.000346326, Final residual = 9.19182e-06, No Iterations 2
ExecutionTime = 7.17 s  ClockTime = 8 s

Courant Number mean: 0.537969 max: 4.99999
deltaT = 0.002
Time = 0.996

PIMPLE: iteration 1
smoothSolver:  Solving for Ux, Initial residual = 0.000367165, Final residual = 2.3491e-06, No Iterations 2
smoothSolver:  Solving for Uy, Initial residual = 0.000347648, Final residual = 3.8397e-06, No Iterations 2
GAMG:  Solving for p, Initial residual = 0.00071592, Final residual = 4.91091e-06, No Iterations 3
time step continuity errors : sum local = 1.23064e-07, global = -7.35238e-09, cumulative = 3.28388e-05
GAMG:  Solving for p, Initial residual = 0.000166387, Final residual = 8.15552e-08, No Iterations 6
time step continuity errors : sum local = 2.04366e-09, global = -3.02167e-10, cumulative = 3.28385e-05
smoothSolver:  Solving for epsilon, Initial residual = 0.000185066, Final residual = 4.58308e-06, No Iterations 2
smoothSolver:  Solving for k, Initial residual = 0.000345143, Final residual = 9.21398e-06, No Iterations 2
ExecutionTime = 7.17 s  ClockTime = 8 s

Courant Number mean: 0.537964 max: 5.0006
deltaT = 0.002
Time = 0.998

PIMPLE: iteration 1
smoothSolver:  Solving for Ux, Initial residual = 0.000366266, Final residual = 2.33437e-06, No Iterations 2
smoothSolver:  Solving for Uy, Initial residual = 0.000346183, Final residual = 3.81338e-06, No Iterations 2
GAMG:  Solving for p, Initial residual = 0.000729596, Final residual = 4.94681e-06, No Iterations 3
time step continuity errors : sum local = 1.23958e-07, global = -8.29403e-09, cumulative = 3.28302e-05
GAMG:  Solving for p, Initial residual = 0.000168442, Final residual = 7.22666e-08, No Iterations 6
time step continuity errors : sum local = 1.8108e-09, global = -2.92857e-10, cumulative = 3.28299e-05
smoothSolver:  Solving for epsilon, Initial residual = 0.000183647, Final residual = 4.54692e-06, No Iterations 2
smoothSolver:  Solving for k, Initial residual = 0.000344041, Final residual = 9.23923e-06, No Iterations 2
ExecutionTime = 7.18 s  ClockTime = 8 s

Courant Number mean: 0.537959 max: 5.00119
deltaT = 0.002
Time = 1

PIMPLE: iteration 1
smoothSolver:  Solving for Ux, Initial residual = 0.000365329, Final residual = 2.31678e-06, No Iterations 2
smoothSolver:  Solving for Uy, Initial residual = 0.00034401, Final residual = 3.77293e-06, No Iterations 2
GAMG:  Solving for p, Initial residual = 0.000699731, Final residual = 4.72324e-06, No Iterations 3
time step continuity errors : sum local = 1.18353e-07, global = -6.04799e-09, cumulative = 3.28239e-05
GAMG:  Solving for p, Initial residual = 0.000162935, Final residual = 7.79817e-08, No Iterations 6
time step continuity errors : sum local = 1.954e-09, global = -2.65945e-10, cumulative = 3.28236e-05
smoothSolver:  Solving for epsilon, Initial residual = 0.000182335, Final residual = 4.51517e-06, No Iterations 2
smoothSolver:  Solving for k, Initial residual = 0.000343036, Final residual = 9.26309e-06, No Iterations 2
ExecutionTime = 7.2 s  ClockTime = 8 s

End

Finalising parallel run
